488

 H   27.572  24.275   5.431
 N   26.992  23.877   6.169
 O   26.947  26.291   7.775
 H   27.256  23.032   6.600
 H   25.511  21.782   7.443
 C   24.646  22.409   7.505
 C   25.087  23.849   7.776
 H   24.103  22.384   6.584
 H   25.829  23.791   8.545
 C   25.757  24.566   6.593
 H   25.101  24.548   5.748
 C   26.029  26.025   6.996
 H   25.288  26.786   6.709
 O   18.306  21.085  16.567
 H   24.349  21.607   9.459
 H   24.222  24.412   8.056
 H   19.565  22.134  13.492
 H   18.968  23.192  15.540
 H   20.549  24.275  13.873
 C   18.236  23.243  14.762
 H   18.162  25.488  15.103
 H   21.642  29.076  12.500
 H   20.016  28.549  12.314
 N   20.893  28.726  11.903
 H   15.050  14.391   8.944
 C   19.843  24.144  13.080
 H   22.082  28.445  10.207
 H   23.054  22.679   8.916
 C   23.728  21.896   8.637
 H   20.365  23.951  12.166
 N   22.952  20.730   8.230
 H   22.853  20.565   7.265
 C   22.367  19.871   9.064
 N   21.776  18.789   8.589
 H   22.812  20.875  10.741
 N   22.376  20.074  10.370
 H   21.947  19.424  10.972
 C   21.939  26.039   8.621
 H   20.788  26.416  10.855
 H   22.126  25.291   9.363
 H   22.640  26.839   8.737
 N   17.220  22.219  14.948
 C   17.352  21.205  15.795
 H   17.466  19.208  14.292
 C   16.467  19.139  14.669
 C   16.233  20.170  15.766
 H   14.429  21.320  16.119
 H   16.347  18.136  15.022
 H   16.246  19.760  16.754
 C   21.047  28.473  10.476
 H   20.993  30.065   8.880
 C   20.381  29.596   9.664
 H   23.117  18.429   3.151
 N   15.542  14.239   6.941
 O   13.822  13.222   5.884
 H   16.192  10.825   4.703
 O   22.233  15.970   0.265
 O   22.714  20.482   5.029
 H   21.760  18.622   7.619
 C   22.272  19.337   4.844
 H   16.512  14.409   6.946
 O   21.836  18.647   5.778
 H   22.046  25.610   7.647
 C   22.169  18.827   3.447
 H   21.508  17.785   5.611
 H   21.414  18.070   3.421
 O   20.531  15.682   1.672
 H   22.537  20.668   2.503
 H   18.145  13.634   3.326
 C   15.018  13.507   5.961
 H   16.994  12.970   5.358
 N   15.582  11.636   4.604
 H   14.671  11.501   4.257
 C   16.040  13.915   3.699
 C   16.003  12.986   4.955
 H   13.943  14.103   3.538
 C   14.745  13.761   2.918
 H   17.117  12.521   2.455
 H   14.621  12.731   2.656
 C   17.229  13.534   2.782
 H   19.618  15.803   1.847
 O   22.642  19.502   0.361
 C   21.023  16.088   0.586
 H   17.246  14.184   1.932
 C   20.084  16.745  -0.413
 H   21.267  18.397  -1.117
 H   20.202  16.264  -1.361
 O   15.178  30.600  12.384
 H   16.392  22.281  14.419
 C   18.969  23.017  13.388
 H   19.256  25.032  12.974
 C   20.382  27.135  10.174
 H   16.020  28.526  14.008
 C   17.549  24.626  14.801
 H   17.552  27.779  13.700
 N   16.729  28.283  13.370
 O   16.328  24.735  14.569
H 19.42821000 19.22088000 10.06841000
 O   19.231  29.943   9.912
 H   15.173  18.607  13.083
 H   15.920  20.168  12.909
 C   15.477  19.489  13.607
 N   14.915  20.725  15.449
 H   13.588  19.388  14.493
 H   19.334  27.327  10.275
H 17.07558000 18.93035000 10.80599000
H 20.06554000 21.13519000 8.61996000
C 18.67300000 19.93900000 9.75800000
 C   18.009  22.769  12.263
 H   17.396  21.924  12.497
 H   18.556  22.575  11.364
 H   19.634  24.743   9.380
 C   20.532  26.573   8.786
 C   14.331  20.114  14.238
 H   17.391  23.631  12.125
 H   16.869  26.203  11.708
 H   17.538  28.492  11.488
 C   16.588  28.651  11.955
 C   16.190  30.132  11.811
 H   16.856  30.740  11.181
 H   12.921  28.863  16.366
 H   13.254  29.872  13.085
 O   14.067  28.221  14.821
 C   13.036  28.655  15.292
 N   12.390  30.005  13.537
 C   11.893  28.983  14.419
 H    9.754  27.352  14.823
 H   11.014  29.341  14.913
 H   11.867  30.865  13.369
 H   11.184  26.608  15.497
 O   15.803  16.952   7.888
 C   14.762  16.314   8.114
 C   14.714  14.799   8.014
 H   13.701  14.539   7.787
 N   13.583  16.896   8.239
 H   12.763  16.354   8.182
 O   12.880  17.976  10.721
 H   20.382  27.316   8.030
 H   19.646  30.419   6.619
 H   18.162  31.112   7.182
 N   18.626  30.444   6.627
O 19.06100000 19.93800000 5.72900000
C 17.34700000 19.77300000 10.17600000
H 18.13470000 18.66974000 6.99296000
 C   13.484  18.319   8.459
 H   14.461  18.732   8.603
 H   20.034  26.347   3.290
 C   19.490  25.490   8.627
C 19.03700000 21.01600000 8.94700000
C 16.37400000 20.68700000 9.77200000
 H   19.585  25.043   7.659
 H   19.825  25.504   5.488
 H   18.514  25.916   8.729
 C   17.853  29.516   5.837
 H   18.480  28.890   5.237
 C   10.656  26.825  14.592
 H   10.416  25.910  14.091
H 15.34517000 20.53431000 10.09035000
 H   13.833  20.820  13.606
 H   17.748  28.203   7.490
 C   17.047  28.642   6.811
 O   18.660  23.054   5.417
 N   20.524  18.868   0.719
 N   20.536  20.559   2.918
 C   20.089  21.661   2.292
 C   21.693  19.374   1.107
 C   20.355  18.227  -0.584
 C   21.779  19.912   2.496
 O   20.749  22.243   1.403
 H   20.022  20.183   3.669
H 17.81213000 16.84079000 5.55510000
H 19.28257000 17.53811000 4.83720000
 H   19.752  18.927   1.327
 H   16.156  14.928   4.024
 H   19.088  16.640  -0.037
H 19.07971000 20.11816000 4.76944000
C 18.06700000 18.94500000 5.93600000
 H   18.388  21.604   3.554
C 18.22600000 17.72600000 5.05700000
H 15.93449000 18.94158000 6.17061000
 H   15.537  14.239   1.058
 H   17.295  30.415   3.850
 C   18.957  25.372   4.876
 N   19.106  26.199   3.688
 N   18.819  23.600   3.217
 H   18.316  26.613   3.271
 H   18.867  24.329   2.557
C 17.50000000 17.36300000 2.49600000
C 17.47600000 17.90400000 3.76000000
H 18.18880000 16.56494000 2.23981000
C 16.50400000 19.06100000 4.12800000
 C   18.555  26.446   0.653
 O   19.003  25.309   0.692
 H   16.822  27.603   0.479
 H   19.060  27.284   1.155
 H   16.947  27.858  -1.864
 C   18.721  22.211   2.738
C 16.61300000 17.87200000 1.54100000
 H   14.881  15.592   1.947
 C   14.742  14.561   1.698
 H   13.806  14.439   1.194
H 16.61090000 17.45927000 0.53483000
 C   19.212  18.807  -1.371
 H   19.162  18.493  -2.424
 C   17.227  26.751  -0.026
 H   17.982  26.475  -1.988
 N   17.407  27.054  -1.437
 H   14.136  14.929  -2.143
 H   12.695  15.459  -1.310
 H   15.398  16.859  -0.879
 H   18.008  22.721   0.757
 O   18.383  19.523  -0.846
 C   13.297  15.592  -2.184
 H   15.100  16.237  -3.770
 H   12.714  15.377  -3.055
 H   16.715  17.829  -3.624
 H   14.621  25.452  12.331
 C   11.528  27.683  13.690
 H   12.433  27.164  13.453
 H   15.923  28.369   9.274
 H   14.642  27.724  11.875
 C   15.504  27.755  11.242
 H   14.691  29.309  10.080
 C   14.957  25.345  11.321
 C   15.081  28.324   9.932
 H   15.345  24.358  11.177
 H   16.385  26.258  10.030
 C   16.049  26.365  11.040
H 18.34888000 22.75810000 7.93048000
C 18.05800000 21.91600000 8.55300000
C 16.73300000 21.75000000 8.96100000
 H   16.330  29.262   7.307
 O   15.843  30.678   5.237
 C   16.945  30.292   4.886
 H    9.895  28.482  12.639
 H   13.783  29.842   7.046
 O   12.303  31.618   5.504
 H   15.281  30.079   2.387
 C   12.647  18.565   9.672
 H   12.154  21.987  12.368
 H   11.243  19.933  11.591
 H    5.793  28.253  11.353
 H    4.221  27.804  11.970
 H    5.412  25.864  13.016
 H    3.565  24.833  12.643
C 16.69200000 19.50000000 5.60400000
 H   15.846  26.771   7.812
C 15.64400000 22.66400000 8.53400000
H 17.46249000 21.40133000 6.02913000
H 15.81158000 23.64539000 8.99650000
 C   18.845  23.903   4.520
N 16.58300000 20.91300000 5.92400000
 H   18.073  25.671   5.399
H 14.66869000 22.31913000 8.90269000
O 14.36700000 20.83100000 6.39700000
 H   17.178  26.280   2.306
 H   15.934  28.711   3.239
 N   15.213  29.111   2.702
 H   13.660  28.702   1.421
 H    9.255  18.544  11.293
 C   11.936  22.850  11.773
 H   12.801  23.478  11.726
 H   11.126  23.392  12.214
 H    9.685  21.840  12.268
 H    7.830  25.714  13.142
 H    7.330  27.230  12.432
 H   10.581  27.041  11.929
 H   14.137  25.507  10.653
 H   14.324  27.702   9.501
 C   10.805  27.963  12.423
 H    7.941  25.948  11.414
 C    7.369  26.170  12.291
 H   11.419  28.568  11.788
 C   11.629  30.567   5.554
 H   10.529  30.561   5.581
 C   13.031  29.084   6.978
 H   12.322  29.213   7.768
 H   12.399  21.888  10.006
 N   11.850  19.611   9.584
 H   13.029  18.783   7.609
 C   10.858  19.974  10.594
 H   11.928  20.184   8.787
 C    9.707  18.988  10.393
 O    9.341  18.670   9.251
 C   16.316  27.513   6.146
C 15.44700000 21.44000000 6.37300000
C 15.57300000 22.82100000 7.00500000
 O   16.236  27.458   4.905
 O   16.399  25.780   2.453
H 16.50314000 23.27939000 6.64357000
 H   14.243  29.204   4.727
 O   15.762  26.696   6.882
H 11.37753000 26.64444000 10.13154000
 H   13.488  28.120   7.063
H 9.22563000 25.57961000 10.31650000
H 9.27544000 27.87964000 9.69038000
H 8.37113000 27.51319000 8.21133000
 C   11.556  22.421  10.394
 H   11.309  23.297   9.831
 C   10.365  21.453  10.316
 C    9.299  21.862  11.270
 N   13.301  28.967   4.569
H 9.89534000 28.39284000 8.11893000
H 15.28960000 25.65458000 5.23852000
 H    6.012  24.571  11.971
 C    5.234  26.259  10.953
 C    5.959  25.628  12.127
 C    4.898  27.703  11.148
 H    4.440  28.086  10.260
 N    3.167  25.258  11.849
 H    2.190  25.551  11.868
 C   17.682  22.117   1.578
 H   16.731  22.466   1.922
 H   17.595  21.099   1.259
C 15.68300000 19.47900000 3.12900000
C 15.72200000 18.90600000 1.86500000
 C   14.518  17.455  -1.007
H 14.97198000 20.28110000 3.32620000
 H   13.883  17.342  -0.153
 C   14.043  28.331   2.349
 H   14.324  27.302   2.261
O 15.24200000 24.88400000 4.63400000
 C   15.759  25.336   1.493
 H   16.759  24.688  -0.251
 C   16.258  25.572   0.084
 O   14.731  24.675   1.645
H 15.04297000 19.27506000 1.09786000
 H   15.405  25.806  -0.519
 H   15.355  21.821  -0.149
 H   14.796  18.483  -1.111
 C   13.781  17.005  -2.245
 N   15.750  18.102  -3.440
 H   12.930  17.652  -2.285
 C   14.628  17.162  -3.514
 H   13.269  17.060  -5.239
 H   16.172  21.943  -1.688
 H   15.564  19.039  -3.202
 H   15.339  23.330  -1.030
 C   13.618  17.726  -4.436
 H   14.098  20.766  -1.891
 C   15.323  22.264  -1.122
 O   13.169  18.861  -4.263
 O   15.779  21.111  -4.072
 C   15.345  22.255  -3.870
 H   15.923  23.158  -4.116
H 11.97420000 25.41209000 9.03899000
C 11.39800000 26.34700000 9.07400000
H 12.03713000 27.08880000 8.57454000
H 14.54027000 24.69906000 7.12060000
C 14.44000000 23.76100000 6.56900000
H 13.50345000 23.32045000 6.93515000
 C   12.324  29.192   5.642
 C   12.958  28.456   3.394
C 9.37900000 27.57700000 8.64100000
 H   11.563  28.447   5.537
 O   11.832  28.015   3.171
 H    9.946  21.486   9.332
 H    8.972  22.854  11.036
 H    5.909  26.229  10.123
 H    8.473  21.186  11.193
H 9.82118000 24.28572000 9.29331000
 C    4.420  24.140  10.114
 C    3.978  25.464  10.655
 H    3.371  26.000   9.956
 O    4.667  23.248  10.887
 N    4.567  24.042   8.795
 H    4.818  21.999   8.877
H 14.24270000 23.13562000 4.49929000
H 12.94754000 25.75581000 5.30319000
C 14.20300000 24.06400000 5.07800000
H 13.35900000 25.53108000 3.65251000
 H    9.010  21.175   8.032
C 9.36400000 25.28300000 9.26800000
H 8.35939000 25.13583000 8.84908000
C 10.14500000 26.25000000 8.49000000
H 10.02068000 26.74642000 6.48832000
N 10.19300000 25.95300000 7.09400000
O 10.93700000 23.84900000 7.05700000
 H    6.688  21.064   8.572
 H    9.121  19.750   6.168
 C    8.313  21.471   7.276
 N    7.015  21.688   7.884
 C    8.221  20.379   6.232
 O    7.177  20.197   5.583
C 13.08300000 24.96300000 4.55200000
C 10.59100000 24.86400000 6.46600000
 H    8.643  22.377   6.812
H 12.55290000 23.04391000 2.79625000
H 10.46070000 25.92005000 4.57104000
N 11.81900000 24.28200000 4.35500000
 C    4.886  22.777   8.145
 H    4.457  24.849   8.241
 H   13.251  21.219   0.755
 C   14.041  21.833  -1.837
 H   12.292  20.226  -0.316
 C   13.979  22.449  -3.233
 H   13.708  23.482  -3.160
 H    5.532  19.262   2.171
 H    7.622  18.315   1.668
 C   12.438  21.217   0.060
C 11.75300000 23.77600000 2.96100000
H 11.95255000 24.62268000 2.28897000
 H   12.889  23.121  -0.657
 H   11.547  21.546   0.553
 H    8.285  19.823   1.229
 C    7.387  19.243   1.190
 C   12.754  22.151  -1.088
 H   11.944  22.107  -1.785
 H   13.107  20.796  -4.253
 N   12.983  21.755  -4.066
 H   12.169  22.229  -4.457
 O    9.973  20.911  -2.929
 N    6.922  19.074  -0.214
 H    7.155  18.340  -0.883
 H    5.010  19.569  -0.891
C 10.59100000 24.90500000 4.96200000
H 10.46647000 22.11458000 2.75898000
H 9.57125000 22.99634000 4.94483000
 C    6.265  22.720   7.521
 O    6.723  23.689   6.900
 C    6.274  19.954   1.831
 H    4.185  22.662   7.344
 H    6.594  20.508   2.688
 H    4.656  21.067   0.900
H 4.02191000 23.39047000 4.93094000
C 8.03300000 23.10000000 2.60400000
C 10.44000000 23.18200000 2.49300000
C 9.49800000 23.98300000 4.45900000
H 8.02623000 22.08035000 3.01563000
H 8.56059000 24.40329000 4.85025000
H 6.25510000 22.38554000 4.50938000
H 10.43392000 23.20589000 1.39519000
C 5.90500000 23.21100000 3.89700000
N 9.28000000 23.76300000 3.00400000
C 4.65400000 23.77400000 4.13600000
 C    5.694  20.874   0.729
 C    5.896  20.066  -0.556
H 8.05990000 22.95474000 1.51404000
 H    8.176  21.057  -1.197
 H    6.167  21.833   0.696
 H    8.458  23.015  -0.448
 C    9.101  23.485  -1.163
 H    9.981  22.891  -1.297
 C    6.244  20.969  -1.727
 H    9.377  24.457  -0.810
 N    7.520  21.355  -1.868
 C    7.990  22.207  -2.983
 C    8.375  23.616  -2.484
 C    9.255  21.636  -3.581
 H    9.026  24.087  -3.191
 H    7.190  22.249  -3.692
 H    9.533  21.907  -4.610
 O    5.343  21.294  -2.509
C 6.66600000 23.73900000 2.87600000
C 4.20700000 24.83900000 3.34800000
H 3.23099000 25.28558000 3.52497000
C 6.15800000 24.80800000 2.12400000
N 4.91100000 25.43000000 2.30000000
H 6.74594000 25.24131000 1.31654000
 H    6.440  24.078  -1.661
 C    7.122  24.513  -2.361
 H    7.411  25.485  -2.021
 H    6.648  24.596  -3.317
 H    5.465  27.829   1.860
 N    5.925  28.688   1.719
 H    5.941  29.361   2.437
 N    6.476  28.028  -0.411
 C    6.523  28.938   0.561
 H    6.917  28.205  -1.273
 H    7.135  30.751   1.118
 N    7.143  30.102   0.378
 H    8.485  29.677  -1.133
 C    7.828  30.471  -0.844
 H    7.100  30.645  -1.609
 H    7.954  32.524  -0.433
 C    8.623  31.716  -0.644
 H    9.297  31.553   0.171
 C    9.435  32.061  -1.862
 H    8.748  32.342  -2.632
 H   10.018  31.206  -2.135
 C   10.385  33.251  -1.642
 H   10.904  33.106  -0.717
 H    8.677  34.531  -1.515
 H   10.170  35.409  -1.454
 C   11.348  33.305  -2.780
 N    9.661  34.528  -1.525
 H   12.322  32.817  -2.630
 O   10.964  33.682  -3.906
