155

 O   22.642  19.502   0.361
 H   23.117  18.429   3.151
 C   21.779  19.912   2.496
 H   22.537  20.668   2.503
 C   21.693  19.374   1.107
 O   22.714  20.482   5.029
 C   22.169  18.827   3.447
 C   22.272  19.337   4.844
 H   21.508  17.785   5.611
 O   21.836  18.647   5.778
 H   21.414  18.070   3.421
 H   20.727  18.956   0.786
H 19.42821000 19.22088000 10.06841000
 N   20.536  20.559   2.918
 H   20.197  21.395   2.443
H 20.06554000 21.13519000 8.61996000
C 18.67300000 19.93900000 9.75800000
H 17.07558000 18.93035000 10.80599000
 H   20.022  20.183   3.669
H 19.28257000 17.53811000 4.83720000
H 17.81213000 16.84079000 5.55510000
H 18.18880000 16.56494000 2.23981000
O 19.06100000 19.93800000 5.72900000
H 18.13470000 18.66974000 6.99296000
C 17.34700000 19.77300000 10.17600000
C 19.03700000 21.01600000 8.94700000
C 16.37400000 20.68700000 9.77200000
 O   18.660  23.054   5.417
H 15.34517000 20.53431000 10.09035000
 H   19.646  30.419   6.619
 H   18.162  31.112   7.182
 N   18.626  30.444   6.627
 H   20.034  26.347   3.290
 H   19.825  25.504   5.488
 H   17.295  30.415   3.850
 C   16.945  30.292   4.886
 O   15.843  30.678   5.237
 H   18.480  28.890   5.237
 C   17.853  29.516   5.837
 C   17.047  28.642   6.811
 H   17.748  28.203   7.490
 H   16.330  29.262   7.307
C 18.06700000 18.94500000 5.93600000
H 19.07971000 20.11816000 4.76944000
H 15.93449000 18.94158000 6.17061000
C 17.47600000 17.90400000 3.76000000
C 18.22600000 17.72600000 5.05700000
C 16.50400000 19.06100000 4.12800000
C 17.50000000 17.36300000 2.49600000
C 16.61300000 17.87200000 1.54100000
C 15.72200000 18.90600000 1.86500000
H 16.61090000 17.45927000 0.53483000
H 15.04297000 19.27506000 1.09786000
 N   19.106  26.199   3.688
 C   18.555  26.446   0.653
 H   19.060  27.284   1.155
 O   19.003  25.309   0.692
 H   17.982  26.475  -1.988
 N   17.407  27.054  -1.437
 H   16.947  27.858  -1.864
 C   18.957  25.372   4.876
 H   18.316  26.613   3.271
 H   18.824  23.654   3.449
 C   17.227  26.751  -0.026
 H   16.759  24.688  -0.251
 H   16.822  27.603   0.479
 H   15.405  25.806  -0.519
C 18.05800000 21.91600000 8.55300000
H 18.34888000 22.75810000 7.93048000
C 16.73300000 21.75000000 8.96100000
 C   18.845  23.903   4.520
 H   18.073  25.671   5.399
H 15.81158000 23.64539000 8.99650000
H 14.66869000 22.31913000 8.90269000
H 17.46249000 21.40133000 6.02913000
N 16.58300000 20.91300000 5.92400000
C 16.69200000 19.50000000 5.60400000
C 15.64400000 22.66400000 8.53400000
C 15.68300000 19.47900000 3.12900000
O 14.36700000 20.83100000 6.39700000
 H   15.846  26.771   7.812
 H   17.178  26.280   2.306
 C   16.258  25.572   0.084
C 15.44700000 21.44000000 6.37300000
H 16.50314000 23.27939000 6.64357000
C 15.57300000 22.82100000 7.00500000
 C   16.316  27.513   6.146
 O   16.399  25.780   2.453
 O   16.236  27.458   4.905
 O   15.762  26.696   6.882
H 9.22563000 25.57961000 10.31650000
H 11.37753000 26.64444000 10.13154000
H 8.37113000 27.51319000 8.21133000
H 9.27544000 27.87964000 9.69038000
H 15.28960000 25.65458000 5.23852000
H 9.89534000 28.39284000 8.11893000
H 14.97198000 20.28110000 3.32620000
 C   15.759  25.336   1.493
O 15.24200000 24.88400000 4.63400000
 O   14.731  24.675   1.645
C 14.44000000 23.76100000 6.56900000
H 14.54027000 24.69906000 7.12060000
H 13.50345000 23.32045000 6.93515000
H 11.97420000 25.41209000 9.03899000
H 12.03713000 27.08880000 8.57454000
C 11.39800000 26.34700000 9.07400000
C 9.37900000 27.57700000 8.64100000
C 14.20300000 24.06400000 5.07800000
H 14.24270000 23.13562000 4.49929000
H 12.94754000 25.75581000 5.30319000
H 13.35900000 25.53108000 3.65251000
H 9.82118000 24.28572000 9.29331000
C 10.59100000 24.86400000 6.46600000
C 13.08300000 24.96300000 4.55200000
H 8.35939000 25.13583000 8.84908000
N 10.19300000 25.95300000 7.09400000
H 10.02068000 26.74642000 6.48832000
O 10.93700000 23.84900000 7.05700000
C 9.36400000 25.28300000 9.26800000
C 10.14500000 26.25000000 8.49000000
 H    4.454  24.117   9.806
N 11.81900000 24.28200000 4.35500000
H 10.46070000 25.92005000 4.57104000
H 12.55290000 23.04391000 2.79625000
C 11.75300000 23.77600000 2.96100000
H 11.95255000 24.62268000 2.28897000
C 10.59100000 24.90500000 4.96200000
H 10.46647000 22.11458000 2.75898000
H 9.57125000 22.99634000 4.94483000
 H    6.887  21.864   7.822
H 10.43392000 23.20589000 1.39519000
C 9.49800000 23.98300000 4.45900000
C 10.44000000 23.18200000 2.49300000
N 9.28000000 23.76300000 3.00400000
H 8.02623000 22.08035000 3.01563000
 O    6.723  23.689   6.900
 C    6.265  22.720   7.521
 C    4.886  22.777   8.145
 H    4.457  24.849   8.241
 N    4.567  24.042   8.795
 H    4.818  21.999   8.877
H 8.56059000 24.40329000 4.85025000
 H    4.185  22.662   7.344
C 8.03300000 23.10000000 2.60400000
H 8.05990000 22.95474000 1.51404000
C 5.90500000 23.21100000 3.89700000
C 6.66600000 23.73900000 2.87600000
H 6.25510000 22.38554000 4.50938000
C 4.65400000 23.77400000 4.13600000
H 6.74594000 25.24131000 1.31654000
C 6.15800000 24.80800000 2.12400000
H 4.02191000 23.39047000 4.93094000
C 4.20700000 24.83900000 3.34800000
N 4.91100000 25.43000000 2.30000000
H 3.23099000 25.28558000 3.52497000
