669

 O   25.398  22.903  -2.461
 H   26.562  23.034   2.143
 N   26.467  22.303   2.795
 H   25.456  24.444   2.308
 N   26.992  23.877   6.169
 H   27.572  24.275   5.431
 H   27.256  23.032   6.600
 O   26.947  26.291   7.775
 H   24.044  25.108   3.171
 H   25.988  20.539   4.460
 H   21.760  18.622   7.619
 H   18.723   8.608  -0.137
 C   17.443   7.812   1.371
 H   18.131   7.284   1.997
 N   16.974   6.847   0.381
 H   17.574   6.083   0.070
 H   16.067   6.935   0.008
 H   22.853  20.565   7.265
 H   25.511  21.782   7.443
 N   22.952  20.730   8.230
 C   22.367  19.871   9.064
 N   21.776  18.789   8.589
 N   22.376  20.074  10.370
 H   21.947  19.424  10.972
 H   20.844  10.118   0.453
 H   19.780   8.893   2.119
 H   21.488  10.902   2.573
 H   21.721  30.438   1.283
 C   18.601  32.197   1.773
 H   19.146  32.383   0.871
 H   18.342  33.128   2.232
 O   10.964  33.682  -3.906
 H    8.677  34.531  -1.515
 H   10.170  35.409  -1.454
 N    9.661  34.528  -1.525
 C   24.429  24.306   2.576
 H   23.753  25.190   0.772
 H   25.227  23.274   0.290
 H   23.497  24.103  -1.419
 C   24.413  22.356  -1.973
 H   24.134  21.322  -2.222
 C   25.357  22.185   3.495
 N   24.362  23.068   3.371
 H   24.447  21.103   4.923
 N   25.255  21.190   4.368
 O   21.836  18.647   5.778
 H   21.508  17.785   5.611
 C   21.279  29.499   1.024
 H   21.930  28.970   0.360
 O   22.714  20.482   5.029
 C   22.272  19.337   4.844
 H   23.117  18.429   3.151
 O   22.642  19.502   0.361
 H   23.521  22.877   3.846
 H   23.926  22.221   0.879
 C   23.646  24.256   1.283
 C   24.171  23.147   0.403
 C   23.533  23.126  -0.985
 N   22.117  22.755  -0.887
 H   16.729  31.998   0.776
 O   17.693  30.177   0.863
 H   20.339  29.668   0.542
 C   17.328  31.419   1.447
 C   10.385  33.251  -1.642
 H   10.904  33.106  -0.717
 C   11.348  33.305  -2.780
 H   12.322  32.817  -2.630
 H   22.537  20.668   2.503
 H   22.614  24.077   1.501
 H   21.504  22.790  -1.701
 H   10.018  31.206  -2.135
 H   16.947  27.858  -1.864
 H   15.139  27.906  -3.939
 H   12.797  28.170  -4.241
 H   12.492  26.499  -6.043
 H   17.829  13.780  -6.116
 H   19.266  20.934  -4.589
 O   19.740  20.123  -4.831
 H   18.380  19.440  -6.998
 H   25.101  24.548   5.748
 H   24.103  22.384   6.584
 C   24.646  22.409   7.505
 C   23.728  21.896   8.637
 H   25.829  23.791   8.545
 H   24.349  21.607   9.459
 C   25.757  24.566   6.593
 C   25.087  23.849   7.776
 C   26.029  26.025   6.996
 H   25.288  26.786   6.709
 H   24.222  24.412   8.056
 H   18.735  28.342   1.256
 C   21.063  28.678   2.282
 H   21.997  28.502   2.773
 N   19.163  27.455   1.257
 H   21.101  26.798   1.236
 H   18.234  29.672   1.490
 H   19.344  29.563   2.695
 H   19.207  31.625   2.444
 O   20.188  29.407   3.146
 C   20.319  26.393   3.168
 C   20.441  27.290   1.920
 O   21.316  25.867   3.637
 H   22.812  20.875  10.741
 C   22.169  18.827   3.447
 H   21.267  18.397  -1.117
 H   21.414  18.070   3.421
 O   22.233  15.970   0.265
 H   22.153  12.423   0.866
 N   19.152  18.428  -2.643
 H   19.856  17.823  -2.970
 C   18.810  19.051  -4.967
 C   17.844  19.330  -6.078
 H   19.310  18.144  -5.234
 H   17.309  20.232  -5.867
 H   17.153  18.517  -6.162
 H   20.202  16.264  -1.361
 H   18.223  11.539  -2.414
 C   18.678  12.463  -2.705
 H   19.619  12.569  -2.206
 N   17.295  14.086  -5.303
 H   18.833  12.467  -3.764
 H   16.687  12.182  -4.745
 H   17.392  15.016  -4.996
 H   18.248  14.515  -2.623
 H   17.456   9.715   0.390
 C   18.177   8.988   0.701
 N   21.413  12.705   1.509
 H   21.814  13.255   2.269
 H   19.532  11.263   0.348
 C   20.095  10.640   1.011
 C   20.084  16.745  -0.413
 C   21.023  16.088   0.586
 H   19.088  16.640  -0.037
 C   20.751  11.491   2.069
 O   20.531  15.682   1.672
 C   17.787  13.595  -2.330
 C   19.183   9.659   1.670
 H   18.606  10.204   2.388
 C   16.334   8.328   2.257
 H   16.614   8.541   3.299
 O   15.192   8.470   1.828
 H   23.054  22.679   8.916
 H   19.983  11.823   2.736
 H   16.250  32.058   3.163
 C   16.548  31.148   2.684
 O   14.412  30.939   1.615
 H   22.082  28.445  10.207
 N   19.106  26.199   3.688
 H   18.233  30.066   3.372
 H   18.316  26.613   3.271
 H   20.993  30.065   8.880
 N   17.364  30.439   3.645
 H   19.646  30.419   6.619
 C   16.945  30.292   4.886
 H   15.934  28.711   3.239
 N   15.213  29.111   2.702
 C   15.302  30.382   2.289
 C    9.435  32.061  -1.862
 H    8.485  29.677  -1.133
 H    8.748  32.342  -2.632
 H    7.100  30.645  -1.609
 O   15.843  30.678   5.237
 O   11.832  28.015   3.171
 C    8.623  31.716  -0.644
 H    9.297  31.553   0.171
 C    7.828  30.471  -0.844
 H    7.954  32.524  -0.433
 N    7.143  30.102   0.378
 C    6.523  28.938   0.561
 N    5.925  28.688   1.719
 H    5.465  27.829   1.860
 C   16.390  13.196  -4.575
 H   15.912  12.683  -2.591
 H   14.279  12.569  -5.053
 N   12.560  26.257  -5.054
 C   16.450  13.476  -3.067
 C   14.972  13.423  -5.073
 O   14.652  14.514  -5.518
 N   17.407  27.054  -1.437
 H   17.982  26.475  -1.988
 H   21.752  22.467  -0.019
 C   21.693  19.374   1.107
 C   21.779  19.912   2.496
 C   19.212  18.807  -1.371
 H   19.752  18.927   1.327
 C   20.355  18.227  -0.584
 N   20.524  18.868   0.719
 N   20.536  20.559   2.918
 H   20.022  20.183   3.669
 C   18.555  26.446   0.653
 C   20.089  21.661   2.292
 H   18.867  24.329   2.557
 C   18.845  23.903   4.520
 O   19.003  25.309   0.692
 N   18.819  23.600   3.217
 O   20.749  22.243   1.403
 H   18.388  21.604   3.554
 O   18.660  23.054   5.417
 H   17.178  26.280   2.306
 H   16.822  27.603   0.479
 C   17.227  26.751  -0.026
 O   16.399  25.780   2.453
 C   14.043  28.331   2.349
 H   12.163  29.391  -0.637
 H   13.660  28.702   1.421
 H   14.324  27.302   2.261
 H   10.957  28.813  -1.761
 C   12.006  28.877  -1.562
 H   13.636  27.592  -1.270
 H   12.487  29.413  -2.353
 C   13.017  27.151  -4.001
 C   15.759  25.336   1.493
 C   16.258  25.572   0.084
 C   18.721  22.211   2.738
 H   16.759  24.688  -0.251
 H   18.008  22.721   0.757
 O   18.383  19.523  -0.846
 H   15.405  25.806  -0.519
 O   15.779  21.111  -4.072
 C   14.518  27.005  -3.822
 O   15.008  25.915  -3.588
 H   15.923  23.158  -4.116
 C   15.345  22.255  -3.870
 C   12.592  27.472  -1.469
 H   12.031  27.157   0.561
 C   12.330  26.721  -2.741
 H   12.295  25.346  -4.791
 H    6.917  28.205  -1.273
 N    6.476  28.028  -0.411
 H   12.608  25.703  -2.565
 C   11.917  26.658  -0.379
 H   11.296  26.911  -2.939
 H   16.061  14.470  -3.001
 C   18.113  18.843  -3.603
 H   17.633  19.751  -3.303
 O   17.342  16.586  -3.904
 C   17.019  17.743  -3.682
 O   13.169  18.861  -4.263
 H   13.269  17.060  -5.239
 H   18.540  13.752  -0.363
 H   21.642  29.076  12.500
 C   21.939  26.039   8.621
 H   22.046  25.610   7.647
 H   20.382  27.316   8.030
 H   19.825  25.504   5.488
 H   22.126  25.291   9.363
 H   22.640  26.839   8.737
 H   20.788  26.416  10.855
 C   20.381  29.596   9.664
 C   21.047  28.473  10.476
 N   20.893  28.726  11.903
 O   19.231  29.943   9.912
 N   18.626  30.444   6.627
 H   18.162  31.112   7.182
 C   20.532  26.573   8.786
 H   18.480  28.890   5.237
 C   18.957  25.372   4.876
 C   17.853  29.516   5.837
 O   16.236  27.458   4.905
 H   18.073  25.671   5.399
 H   19.585  25.043   7.659
 H   20.365  23.951  12.166
 H   20.549  24.275  13.873
 H   19.618  15.803   1.847
 H   17.130  12.731  -0.518
 H   15.564  19.039  -3.202
 N   15.750  18.102  -3.440
 H   15.100  16.237  -3.770
 C   14.628  17.162  -3.514
 C   13.618  17.726  -4.436
 H   16.963  14.469  -0.593
 C   17.591  13.640  -0.845
 H   14.136  14.929  -2.143
 H   15.398  16.859  -0.879
 C   17.229  13.534   2.782
 H   17.117  12.521   2.455
 H   18.145  13.634   3.326
 H   17.246  14.184   1.932
 H   15.537  14.239   1.058
 H   16.192  10.825   4.703
 N   15.582  11.636   4.604
 H   14.621  12.731   2.656
 H   14.671  11.501   4.257
 C   19.490  25.490   8.627
 C   20.382  27.135  10.174
 H   19.634  24.743   9.380
 C   16.040  13.915   3.699
 H   16.994  12.970   5.358
 C   16.003  12.986   4.955
 H   10.876  26.554  -0.604
 H    7.411  25.485  -2.021
 C   19.843  24.144  13.080
 H   14.243  29.204   4.727
 C   12.958  28.456   3.394
 N   13.301  28.967   4.569
 O   18.306  21.085  16.567
 H   19.565  22.134  13.492
 H   18.968  23.192  15.540
 H   19.334  27.327  10.275
 H   18.162  25.488  15.103
 H   20.016  28.549  12.314
 C   18.236  23.243  14.762
 C   16.316  27.513   6.146
 C   17.047  28.642   6.811
 H   17.748  28.203   7.490
 H   16.330  29.262   7.307
 H   13.488  28.120   7.063
 O   15.762  26.696   6.882
 H   16.856  30.740  11.181
 C   16.190  30.132  11.811
 H   13.783  29.842   7.046
 H   11.563  28.447   5.537
 C   13.031  29.084   6.978
 C   12.324  29.192   5.642
 H    7.135  30.751   1.118
 O   12.303  31.618   5.504
 H    5.941  29.361   2.437
 C   11.629  30.567   5.554
 H    9.823  29.697   5.568
 N   10.296  30.560   5.587
 C    7.752  31.004   4.015
 O    8.591  31.192   3.104
 H    9.912  32.431   4.887
 H    6.066  30.294   4.547
 O    6.661  30.410   3.833
 C   13.297  15.592  -2.184
 H   12.714  15.377  -3.055
 H   12.695  15.459  -1.310
 H   13.708  23.482  -3.160
 H   12.169  22.229  -4.457
 C   13.781  17.005  -2.245
 H   13.107  20.796  -4.253
 N   12.983  21.755  -4.066
 H   14.796  18.483  -1.111
 H   16.172  21.943  -1.688
 H   15.339  23.330  -1.030
 C   17.682  22.117   1.578
 H   17.595  21.099   1.259
 H   16.731  22.466   1.922
 O   14.731  24.675   1.645
 C   15.323  22.264  -1.122
 H   12.889  23.121  -0.657
 H   14.098  20.766  -1.891
 H   12.368  25.689  -0.326
 C   14.041  21.833  -1.837
 H   15.355  21.821  -0.149
 C   12.754  22.151  -1.088
 C   13.979  22.449  -3.233
 H   11.944  22.107  -1.785
 H    9.377  24.457  -0.810
 C    9.255  21.636  -3.581
 O    9.973  20.911  -2.929
 H    9.026  24.087  -3.191
 H    9.533  21.907  -4.610
 H    6.648  24.596  -3.317
 H    7.190  22.249  -3.692
 C    8.375  23.616  -2.484
 C    7.122  24.513  -2.361
 H    6.440  24.078  -1.661
 C    7.990  22.207  -2.983
 O    5.343  21.294  -2.509
 H   14.122  33.545  11.257
 O   13.451  34.082  11.707
 H   14.450  33.897  14.200
 O   15.178  30.600  12.384
 H   14.788  32.422  13.325
 H   13.617  32.420  14.622
 C   14.027  32.992  13.816
 C   12.896  33.338  12.795
 H   12.151  33.906  13.311
 H   16.512  14.409   6.946
 H    9.981  22.891  -1.297
 C    9.101  23.485  -1.163
 C   14.518  17.455  -1.007
 H   12.930  17.652  -2.285
 C    9.688  17.449  -2.825
 H   10.644  17.745  -3.204
 H    8.928  18.072  -3.248
 H    9.500  16.429  -3.088
 H    8.318  15.578  -2.120
 N   17.220  22.219  14.948
 C   17.352  21.205  15.795
 H   17.466  19.208  14.292
 C   16.467  19.139  14.669
 H   16.246  19.760  16.754
 H   16.347  18.136  15.022
 O    6.528  17.896  -2.080
 N    7.997  15.816  -1.220
 H    7.455  15.123  -0.705
 C   14.742  14.561   1.698
 H   13.806  14.439   1.194
 H   17.538  28.492  11.488
 H   17.552  27.779  13.700
 N   16.729  28.283  13.370
 H   18.514  25.916   8.729
 H   19.256  25.032  12.974
 C   17.549  24.626  14.801
 H   17.396  21.924  12.497
 C   18.009  22.769  12.263
 O   16.328  24.735  14.569
 C   18.969  23.017  13.388
 H   18.556  22.575  11.364
 H   16.869  26.203  11.708
 C   16.588  28.651  11.955
 H   15.923  28.369   9.274
 H   16.385  26.258  10.030
 H   15.846  26.771   7.812
 H   17.391  23.631  12.125
 H   15.050  14.391   8.944
 C   15.018  13.507   5.961
 H   16.156  14.928   4.024
 C   14.745  13.761   2.918
 N   15.542  14.239   6.941
 O   13.822  13.222   5.884
 H   13.883  17.342  -0.153
 H   14.881  15.592   1.947
 H   13.943  14.103   3.538
 C   16.049  26.365  11.040
 C   14.714  14.799   8.014
 H   13.701  14.539   7.787
 C   14.762  16.314   8.114
 H   15.173  18.607  13.083
 O   15.803  16.952   7.888
 N    7.520  21.355  -1.868
 H    8.458  23.015  -0.448
 H   16.392  22.281  14.419
 C   16.233  20.170  15.766
 O   14.692  21.666  17.473
 H   12.366  22.745  17.849
 H   14.522  24.196  16.625
 C   15.081  28.324   9.932
 H   14.691  29.309  10.080
 H   12.322  29.213   7.768
 C   14.280  21.503  16.325
 N   14.915  20.725  15.449
 H   15.920  20.168  12.909
 C   15.477  19.489  13.607
 H   14.839  23.151  14.585
 C   14.331  20.114  14.238
 H   13.588  19.388  14.493
 C   15.504  27.755  11.242
 H   16.020  28.526  14.008
 O   13.971  23.419  14.244
 H   13.012  31.526  11.682
 H   14.324  27.702   9.501
 O   14.067  28.221  14.821
 H   12.921  28.863  16.366
 O   10.409  29.923  17.194
 H    8.778  29.602  18.363
 C   13.542  24.478  16.300
 H   13.584  25.439  15.832
 H   12.885  24.520  17.144
 H   14.621  25.452  12.331
 H   14.642  27.724  11.875
 H   13.254  29.872  13.085
 N   12.390  30.005  13.537
 C   13.036  28.655  15.292
 H   12.433  27.164  13.453
 C   12.248  32.053  12.215
 O   11.818  31.072   9.679
 C    9.229  30.084  17.483
 N    9.200  32.127  16.258
 H    9.060  33.049  16.671
 C   10.988  31.819  10.163
 N   11.161  32.408  11.326
 C    9.512  31.798   5.651
 H   10.531  33.113  11.601
 O    9.671  33.706   7.056
 H    9.736  30.713   7.912
 C    9.718  32.168   9.444
 N    9.698  31.685   8.062
 C    9.632  32.481   6.994
 H    7.685  30.816   6.117
 C    8.029  31.534   5.402
 H    7.516  32.468   5.498
 H    9.648  33.235   9.396
 H    9.260  19.531  -1.279
 C    9.677  17.594  -1.299
 O    9.952  18.951  -0.924
 H   10.444  16.962  -0.903
 C    8.324  17.137  -0.702
 C   12.438  21.217   0.060
 H   12.292  20.226  -0.316
 H   13.251  21.219   0.755
 H   11.547  21.546   0.553
 H    8.176  21.057  -1.197
 C    6.244  20.969  -1.727
 C    7.227  18.114  -1.090
 N    6.922  19.074  -0.214
 C    5.896  20.066  -0.556
 H    6.167  21.833   0.696
 C    5.694  20.874   0.729
 H    5.010  19.569  -0.891
 H    4.656  21.067   0.900
 C   11.707  31.128  13.318
 C   11.893  28.983  14.419
 H   11.014  29.341  14.913
 O   10.660  31.408  13.910
 H    9.919  31.997  15.598
 C    8.353  30.995  16.628
 H    7.472  31.308  17.149
 H    7.850  31.676  13.787
 H    8.558  31.979  11.209
 C    5.961  31.526  14.713
 H    6.191  32.250  15.467
 H    5.340  30.761  15.130
 H    7.502  33.775   9.850
 H    5.446  32.003  13.906
 O    6.951  33.118   9.473
 C   13.031  23.467  15.319
 C   12.910  22.043  15.936
 N   12.138  22.078  17.162
 N   13.583  16.896   8.239
 H    8.285  19.823   1.229
 C    7.387  19.243   1.190
 H   11.310  18.609   1.652
 H    8.402  17.104   0.365
 H   14.461  18.732   8.603
 H   13.833  20.820  13.606
 H    7.622  18.315   1.668
 H   11.085  17.171   2.619
 C   14.957  25.345  11.321
 H   15.345  24.358  11.177
 H   14.137  25.507  10.653
 H   12.763  16.354   8.182
 O   12.880  17.976  10.721
 C   13.484  18.319   8.459
 H   12.586  16.872   5.239
 C   10.910  18.225   2.567
 H   11.215  16.663   6.303
 H   13.029  18.783   7.609
 C   11.521  16.945   5.317
 H   12.598  18.659   3.605
 H   11.065  16.293   4.602
 H   12.801  23.478  11.726
 C   12.647  18.565   9.672
 C    6.274  19.954   1.831
 H    5.532  19.262   2.171
 H   12.052  23.758  15.001
 H   12.443  21.429  15.195
 H   11.366  21.434  17.337
 H   11.184  26.608  15.497
 H    8.836  29.833  14.957
 H   11.419  28.568  11.788
 C    7.937  30.247  15.365
 H    7.174  29.597  15.741
 H   12.154  21.987  12.368
 C   11.936  22.850  11.773
 H   11.243  19.933  11.591
 C   10.656  26.825  14.592
 C   11.528  27.683  13.690
 H   11.126  23.392  12.214
 C   10.805  27.963  12.423
 H    9.754  27.352  14.823
 H   10.416  25.910  14.091
 H   10.581  27.041  11.929
 H    9.895  28.482  12.639
 H    8.653  30.520  10.222
 C    8.549  31.585  10.214
 C    7.222  30.919  14.207
 C    7.254  31.916   9.579
 O    6.561  31.008   9.099
 H    9.685  21.840  12.268
 H   12.399  21.888  10.006
 N   11.850  19.611   9.584
 H    9.255  18.544  11.293
 H    9.857  18.414   2.603
 C   11.553  18.874   3.682
 C   11.095  18.362   5.046
 H   11.343  19.922   3.628
 H    6.594  20.508   2.688
 O    8.143  16.589   4.863
 H    7.819  29.477  12.783
 C    6.909  29.914  13.139
 H    6.280  29.148  13.543
 H    6.405  30.399  12.329
 H    8.428  23.714  13.968
 H    8.824  22.043  14.292
 H    8.031  23.006  15.516
 H   11.584  18.954   5.792
 C    9.537  18.544   5.194
 H   11.928  20.184   8.787
 H    9.137  18.775   4.229
 C   10.858  19.974  10.594
 C   11.556  22.421  10.394
 C    8.802  17.261   5.658
 H   11.309  23.297   9.831
 H    8.854  17.004   6.726
 C    9.707  18.988  10.393
 O    9.341  18.670   9.251
 C    9.299  21.862  11.270
 H   10.026  19.797   6.805
 N    9.309  19.619   6.155
 C   10.365  21.453  10.316
 H    8.972  22.854  11.036
 H    9.946  21.486   9.332
 O    7.177  20.197   5.583
 C    8.110  22.821  14.465
 C    6.796  22.408  13.939
 C    6.199  21.155  14.625
 C    6.967  19.888  14.203
 H    7.998  19.990  14.470
 H    6.289  21.276  15.684
 H    6.552  19.037  14.702
 H    3.680  22.109  15.929
 H    7.830  25.714  13.142
 H    7.330  27.230  12.432
 H    8.473  21.186  11.193
 H    6.884  19.757  13.144
 C    3.921  22.179  14.858
 H    6.121  23.215  14.135
 H    6.904  22.199  12.895
 C    7.369  26.170  12.291
 H    7.941  25.948  11.414
 H    5.412  25.864  13.016
 H    5.793  28.253  11.353
 H    4.221  27.804  11.970
 O    3.575  23.139  14.182
 C    5.959  25.628  12.127
 C    4.898  27.703  11.148
 H    4.440  28.086  10.260
 H    6.012  24.571  11.971
 H    9.010  21.175   8.032
 C    8.221  20.379   6.232
 C    5.234  26.259  10.953
 H    5.909  26.229  10.123
 H    8.643  22.377   6.812
 H    3.565  24.833  12.643
 C    4.689  21.005  14.248
 H    4.330  20.075  14.636
 O    3.930  18.810  12.781
 C    8.313  21.471   7.276
 H    6.688  21.064   8.572
 N    7.015  21.688   7.884
 C    6.265  22.720   7.521
 O    6.723  23.689   6.900
 H    4.696  21.765  12.253
 N    4.483  20.969  12.792
 O    4.667  23.248  10.887
 C    4.015  19.881  12.194
 H    4.635  18.662   9.344
 N    3.806  18.788   9.925
 H    3.126  18.076   9.945
 C    3.978  25.464  10.655
 N    3.167  25.258  11.849
 H    3.371  26.000   9.956
 H    2.190  25.551  11.868
 H    4.220  20.754  10.310
 C    3.593  19.996  10.731
 H    1.904  20.947  11.532
 H    1.554  19.444  10.652
 C    4.420  24.140  10.114
 H    4.818  21.999   8.877
 N    4.567  24.042   8.795
 H    1.576  22.954  10.542
 H    4.457  24.849   8.241
 C    4.886  22.777   8.145
 C    1.556  22.518   9.607
 C    2.121  20.351  10.670
 H    4.185  22.662   7.344
 C    1.760  21.152   9.484
 C    1.327  23.302   8.496
 C    1.725  20.567   8.216
 H    1.869  19.549   8.123
 H    1.182  24.318   8.604
 C    1.500  21.332   7.075
 C    1.290  22.718   7.212
 H    1.111  23.302   6.380
 H    1.487  20.890   6.142
