1332

 H    0.028  25.505  21.653
 H   -1.414  23.838  20.702
 H    0.745  24.004  21.728
 N    0.439  24.751  21.104
 C   -0.580  24.217  20.149
 H    0.518  22.408  19.939
 H   -0.892  25.010  19.502
 C    0.006  23.101  19.304
 H   -0.786  22.603  18.785
 H    1.473  24.495  18.754
 C    0.974  23.665  18.300
 H    0.431  23.967  17.429
 H   -1.049  24.685  14.431
 H   -1.913  23.597  13.317
 H   -0.072  28.908  17.291
 C    2.021  22.661  17.895
 H    2.595  22.398  18.759
 H    1.514  21.813  17.484
 N    0.586  28.336  16.762
 H   -0.311  28.568  14.865
 H   -0.139  26.947  13.251
 C    0.634  28.302  15.290
 H    2.387  23.761  16.124
 C    2.968  23.196  16.823
 O    1.711  26.163  15.608
 H    1.223  27.776  17.262
 O    3.023  27.557  18.455
 C    1.025  26.869  14.873
 N    0.570  26.438  13.707
 C    1.693  29.299  14.799
 H    4.854  27.964  19.242
 H    3.233  25.729  16.605
 N    3.953  25.391  17.185
 C    4.927  26.319  17.754
 C    4.225  27.378  18.556
 H    5.579  25.745  18.379
 C    4.038  24.093  17.449
 O    4.949  23.610  18.157
 H    8.436  24.698  20.049
 H    9.397  20.008  20.038
 H    7.400  20.183  18.842
 S   -0.348  22.459  14.681
 C   -0.970  23.867  13.745
 C   -0.047  24.319  12.624
 H   -0.645  24.889  11.944
 N    3.632  22.095  16.145
 H    3.868  21.282  16.647
 H   -0.016  21.298  12.546
 C   -0.585  21.081  13.426
 H   -0.252  20.155  13.846
 H   -1.621  21.005  13.171
 H    4.330  20.075  14.636
 C    1.091  25.232  13.081
 H    1.691  24.701  13.790
 O    3.575  23.139  14.182
 H    0.381  23.450  12.171
 O    3.930  18.810  12.781
 H    2.617  28.760  14.783
 H    1.692  30.136  15.466
 C    1.899  25.638  11.874
 O    1.385  26.292  10.965
 C    1.495  29.822  13.396
 H    1.481  28.996  12.716
 H    0.569  30.357  13.365
 H    0.874  32.129  11.470
 H    2.208  33.101  11.693
 N    1.837  32.301  11.181
 C    2.662  31.103  11.471
 H    2.495  31.710  13.517
 H    2.269  30.267  10.931
 H    9.041  27.049  19.469
 C    3.921  22.179  14.858
 H    7.462  22.474  19.115
 H    6.552  19.037  14.702
 C    4.689  21.005  14.248
 H    6.289  21.276  15.684
 H    7.852  22.573  17.456
 C    8.239  20.616  18.339
 H    8.226  20.277  17.324
 C    8.170  22.144  18.383
 C    9.027  24.918  19.185
 C    9.515  20.215  18.995
 H    9.902  19.318  18.559
 C    6.199  21.155  14.625
 C    6.967  19.888  14.203
 H    5.421  35.474  14.129
 H    5.786  38.237  14.913
 O    6.030  38.013  14.001
 H    5.995  36.042  15.678
 H    7.941  37.659  15.774
 H    8.422  35.808  16.699
 H    6.967  34.936  14.737
 C    6.287  35.760  14.688
 O    8.104  33.576  17.594
 H   10.545  35.325  18.143
 N    9.085  35.534  16.025
 H    4.191  28.255  15.983
 C    2.628  30.791  12.986
 H    3.565  24.833  12.643
 N    3.167  25.258  11.849
 H    6.121  23.215  14.135
 C    6.796  22.408  13.939
 H    7.472  31.308  17.149
 H    3.553  30.310  13.227
 H    5.340  30.761  15.130
 H    6.191  32.250  15.467
 H    6.290  27.842  17.087
 H    4.340  26.746  15.115
 C    4.881  27.551  15.567
 H    5.483  28.036  14.827
 H    6.286  25.187  15.691
 H    5.412  25.864  13.016
 C    5.769  27.009  16.663
 H    4.221  27.804  11.970
 C    5.959  25.628  12.127
 C    4.898  27.703  11.148
 H    8.453  24.983  18.284
 H    7.174  29.597  15.741
 H    8.778  29.602  18.363
 C    9.018  33.325  16.795
 C    6.791  26.027  16.120
 H    7.424  25.694  16.916
 H    7.384  26.507  15.370
 N    9.637  26.227  19.375
 H   10.892  32.951  18.350
 H   12.378  33.834  18.607
 H    8.031  23.006  15.516
 H   10.617  26.318  19.412
 O   13.982  27.222  21.618
 N    9.538  22.542  18.758
 C   10.005  23.782  18.984
 H   11.235  21.472  19.444
 C   10.442  21.388  18.731
 O   10.748  20.397  16.559
 O   11.215  24.012  19.065
 C   11.136  21.242  17.389
 C   13.739  26.125  21.160
 H   13.014  25.431  21.610
 H   13.728  24.935  19.431
 H   15.577  24.304  20.983
 H   17.552  23.811  21.093
 O   18.134  23.657  20.375
 H    1.554  19.444  10.652
 H    6.904  22.199  12.895
 H    7.998  19.990  14.470
 N    4.483  20.969  12.792
 H    1.904  20.947  11.532
 H    6.012  24.571  11.971
 H    1.576  22.954  10.542
 C    1.556  22.518   9.607
 C    3.978  25.464  10.655
 C    5.234  26.259  10.953
 C    1.327  23.302   8.496
 C    1.760  21.152   9.484
 H    3.371  26.000   9.956
 H    1.182  24.318   8.604
 H    1.869  19.549   8.123
 C    1.725  20.567   8.216
 C    1.500  21.332   7.075
 C    1.290  22.718   7.212
 H    1.111  23.302   6.380
 H    1.487  20.890   6.142
 H    4.696  21.765  12.253
 C    4.015  19.881  12.194
 C    3.593  19.996  10.731
 H    6.884  19.757  13.144
 C    2.121  20.351  10.670
 H    4.220  20.754  10.310
 O    4.667  23.248  10.887
 H    5.909  26.229  10.123
 C    4.420  24.140  10.114
 N    4.567  24.042   8.795
 H    4.457  24.849   8.241
 H    3.126  18.076   9.945
 C    4.884  18.624   9.170
 N    3.806  18.788   9.925
 H    7.425  17.633  12.207
 H    4.185  22.662   7.344
 H    4.241  17.820   7.349
 H    4.475  16.611   8.652
 C   14.390  25.650  19.874
 H    7.482  17.930  10.450
 C    8.011  17.583  11.313
 O    6.408  15.342   8.870
 O    7.494  15.283  11.167
 C    8.360  16.130  11.054
 N    9.164  18.455  11.474
 N    9.638  15.842  10.818
 H    9.257  13.848  10.842
 H   10.272  16.578  10.657
 C   15.727  25.007  20.190
 H   16.419  25.771  20.477
 H   11.613  36.548  16.263
 C    9.169  36.194  14.895
 C    8.224  37.361  14.786
 C    6.961  36.929  14.010
 N    8.853  38.524  14.181
 H    9.546  39.076  14.686
 N    9.200  32.127  16.258
 H    6.280  29.148  13.543
 C    5.961  31.526  14.713
 H    5.446  32.003  13.906
 C    7.222  30.919  14.207
 H    7.850  31.676  13.787
 H    5.793  28.253  11.353
 H    4.440  28.086  10.260
 H    3.672  31.287  11.170
 H    6.405  30.399  12.329
 O   12.363  27.234  18.612
 C    7.937  30.247  15.365
 C    9.229  30.084  17.483
 C    8.353  30.995  16.628
 O   10.409  29.923  17.194
 H    9.532  18.644  12.368
 C    8.110  22.821  14.465
 H    8.824  22.043  14.292
 H    8.428  23.714  13.968
 H    8.473  21.186  11.193
 H   12.885  24.520  17.144
 N   12.138  22.078  17.162
 H   12.366  22.745  17.849
 C    9.299  21.862  11.270
 H    8.972  22.854  11.036
 H    9.685  21.840  12.268
 H   11.243  19.933  11.591
 C   11.002  34.791  17.336
 H   13.401  30.090  18.804
 H   15.090  29.486  19.068
 C   15.091  32.156  18.733
 H   14.173  32.379  19.236
 H   15.814  31.817  19.445
 H    7.254  36.652  13.019
 H    8.605  38.784  13.265
 C   14.337  29.799  18.375
 C   11.638  33.561  17.884
 H   15.454  33.037  18.247
 H   12.824  35.928  17.358
 H   12.100  33.014  17.089
 C    9.944  34.420  16.291
 O    9.964  35.908  14.007
 H   12.515  35.111  15.845
 C   12.070  35.661  16.648
 H    9.919  31.997  15.598
 H   10.487  34.106  15.424
 H   10.658  36.354  12.130
 H    9.906  37.632  11.288
 C   10.123  14.474  10.792
 H   10.790  14.342  11.618
 H   10.371  12.151   9.775
 H   13.760  12.248  12.804
 H   13.409   6.932   8.943
 H   14.573   5.944   8.094
 H   12.106  11.581  11.168
 C   14.146   6.922   8.167
 H   16.110  12.497  12.111
 H   12.063  29.297  16.916
 H   14.123  31.430  16.996
 C    6.909  29.914  13.139
 H    7.830  25.714  13.142
 C    7.369  26.170  12.291
 H    7.941  25.948  11.414
 H    8.836  29.833  14.957
 H    7.819  29.477  12.783
 H    9.754  27.352  14.823
 C   10.656  26.825  14.592
 H    7.330  27.230  12.432
 H   11.184  26.608  15.497
 H    9.895  28.482  12.639
 H   11.014  29.341  14.913
 O   10.660  31.408  13.910
 H   10.416  25.910  14.091
 C   13.571  27.454  18.396
 N   14.568  26.722  18.889
 N   12.899  28.904  16.576
 C   14.849  31.061  17.691
 H   12.052  23.758  15.001
 C   13.996  28.594  17.500
 H   15.481  26.912  18.573
 H   12.443  21.429  15.195
 H   13.588  19.388  14.493
 C   12.910  22.043  15.936
 O   14.692  21.666  17.473
 H   16.347  18.136  15.022
 H   16.872  30.348  17.613
 C   13.542  24.478  16.300
 H   13.584  25.439  15.832
 C   13.031  23.467  15.319
 H   15.691  23.386  18.811
 C   14.280  21.503  16.325
 H   14.522  24.196  16.625
 H   16.246  19.760  16.754
 H   19.184  27.197  19.337
 N   19.287  27.475  18.398
 H   13.833  20.820  13.606
 N   14.915  20.725  15.449
 C   14.331  20.114  14.238
 H   15.173  18.607  13.083
 H   16.290  24.923  18.156
 C   16.297  24.250  18.988
 C   17.726  23.801  19.191
 O   18.443  23.614  18.182
 C   16.233  20.170  15.766
 C    6.812  16.062   7.983
 C    4.855  17.480   8.157
 C   10.858  19.974  10.594
 C   10.365  21.453  10.316
 C    9.707  18.988  10.393
 H    4.818  21.999   8.877
 C    4.886  22.777   8.145
 H    6.688  21.064   8.572
 H    9.946  21.486   9.332
 O    5.873  19.342   9.280
 N    7.015  21.688   7.884
 C    6.265  22.720   7.521
 O    6.723  23.689   6.900
 N   10.878  12.788   9.221
 H   11.783  10.421   8.970
 O    9.601  11.543   7.137
 H    8.770  15.302   8.160
 N    6.141  17.132   7.563
 H    8.643  22.377   6.812
 H    6.516  17.693   6.846
 O    7.177  20.197   5.583
 O    9.341  18.670   9.251
 C    8.313  21.471   7.276
 N   11.850  19.611   9.584
 C    8.174  15.771   7.405
 H    9.010  21.175   8.032
 H   11.928  20.184   8.787
 C   16.139  30.718  16.927
 H   14.859  28.331  16.925
 O   17.102  27.381  18.051
 H    6.356  10.826   0.075
 H    5.277  12.252  -1.265
 H    8.028  15.139   6.554
 H    7.064  12.109   1.033
 H    9.088  13.781   4.920
 H    8.014  12.497   4.421
 H    9.705  10.899   4.973
 H   14.914   7.631   8.395
 H    9.372  17.515   7.574
 N    8.865  16.952   6.945
 C   13.092  11.697  10.886
 C   14.036  12.076  11.825
 C   15.392  12.225  11.421
 C   10.860  14.080   9.524
 O   11.419  14.930   8.826
 C   12.647  18.565   9.672
 C   13.484  18.319   8.459
 O   12.880  17.976  10.721
 H   14.461  18.732   8.603
 C   10.739  11.914   6.924
 C   12.458  11.126   8.531
 H   12.763  16.354   8.182
 C   11.638  12.302   8.079
 C   13.464  11.471   9.564
 N   13.583  16.896   8.239
 C   15.753  12.001  10.078
 H   16.731  12.119   9.771
 O   15.803  16.952   7.888
 C   18.236  27.600  17.636
 H   16.513  31.597  16.445
 H   20.183  27.658  18.034
 H    5.340  13.265   0.111
 C    5.951  12.742  -0.594
 O    7.007  15.036   0.638
 H   12.151  33.906  13.311
 N   10.446  36.809  11.283
 C   11.707  31.128  13.318
 H   10.531  33.113  11.601
 N   11.161  32.408  11.326
 H    8.653  30.520  10.222
 C    8.549  31.585  10.214
 H    8.558  31.979  11.209
 H    9.648  33.235   9.396
 C    7.254  31.916   9.579
 H    7.502  33.775   9.850
 O    6.561  31.008   9.099
 O    6.951  33.118   9.473
 C   13.036  28.655  15.292
 C   11.893  28.983  14.419
 H   12.154  21.987  12.368
 H   11.126  23.392  12.214
 C   11.936  22.850  11.773
 H   10.581  27.041  11.929
 H   12.399  21.888  10.006
 C   11.556  22.421  10.394
 H   11.309  23.297   9.831
 O   13.971  23.419  14.244
 C   15.477  19.489  13.607
 C   16.467  19.139  14.669
 H   14.839  23.151  14.585
 C   17.352  21.205  15.795
 H   17.466  19.208  14.292
 O   18.306  21.085  16.567
 H   15.920  20.168  12.909
 H   12.801  23.478  11.726
 H   13.617  32.420  14.622
 H   15.930  29.970  16.191
 C   10.892  36.309  10.125
 H    9.761  36.242   8.340
 C   10.359  36.959   8.863
 H    9.794  37.816   9.165
 N   12.390  30.005  13.537
 C   11.528  27.683  13.690
 O   14.067  28.221  14.821
 C   14.027  32.992  13.816
 H   14.450  33.897  14.200
 C   12.896  33.338  12.795
 O   12.419  39.481   8.723
 C   12.248  32.053  12.215
 O   11.577  35.273  10.065
 H   15.827  38.295   8.548
 H   16.042  39.465   5.849
 O   18.098  39.613   5.652
 C   17.048  39.068   6.049
 H   14.788  32.422  13.325
 O   13.451  34.082  11.707
 H   17.014  32.513  13.390
 C   17.830  33.204  13.418
 H   18.397  33.050  14.312
 H   17.451  34.204  13.404
 H   19.515  33.703  12.239
 C    8.754  13.195   4.090
 H    8.331  13.838   3.347
 C    6.838  11.781   0.040
 H   11.073   9.664   3.239
 H    8.189  10.730  -1.251
 H    8.951  11.728  -0.099
 C    8.096  11.665  -0.739
 H    9.574  11.865   2.672
 N   15.910  37.651   7.761
 H   13.374  37.714   9.054
 C   12.511  38.266   8.653
 C   11.458  37.455   7.919
 N   12.063  36.352   7.198
 O   13.429  37.633   5.958
 H   10.994  38.105   7.207
 N   11.204  12.078   5.695
 C    9.923  12.446   3.500
 C   10.538  11.431   4.563
 H   14.466   7.150   4.518
 C   14.763   7.266   5.540
 S   13.357   7.367   6.566
 H   15.357   6.422   5.822
 H   12.969  10.722   7.682
 H   16.531   8.253   6.067
 H   12.272  13.085   7.720
 H   13.701  14.539   7.787
 C   14.789  11.625   9.189
 H   15.051   9.168   6.398
 C   15.562   8.530   5.708
 H   15.055  11.450   8.207
 H   15.050  14.391   8.944
 H   13.012  31.526  11.682
 H   12.433  27.164  13.453
 H   13.254  29.872  13.085
 C   10.805  27.963  12.423
 C   10.988  31.819  10.163
 H   11.419  28.568  11.788
 O    6.661  30.410   3.833
 H    6.066  30.294   4.547
 H    5.941  29.361   2.437
 H    5.465  27.829   1.860
 H    7.913  34.786   2.336
 H   16.717  27.005  15.530
 O   15.178  30.600  12.384
 H   16.020  28.526  14.008
 C   18.508  27.950  16.161
 H   18.221  28.967  15.991
 H   19.552  27.801  15.978
 H   14.621  25.452  12.331
 C   17.731  27.051  15.193
 H   16.392  22.281  14.419
 N   17.220  22.219  14.948
 O   16.328  24.735  14.569
 H   20.401  30.328  15.570
 H   21.110  31.284  14.290
 H   22.812  28.878  15.869
 N   22.778  29.268  14.927
 C   17.549  24.626  14.801
 C   18.236  23.243  14.762
 N   18.292  25.671  15.167
 H   19.231  25.528  15.425
 H   17.396  21.924  12.497
 H   18.968  23.192  15.540
 H   19.565  22.134  13.492
 H    6.594  20.508   2.688
 H    5.532  19.262   2.171
 H    4.656  21.067   0.900
 C    6.274  19.954   1.831
 O    8.143  16.589   4.863
 H   13.029  18.783   7.609
 H   11.215  16.663   6.303
 C    8.802  17.261   5.658
 H   10.026  19.797   6.805
 N    9.309  19.619   6.155
 C    8.221  20.379   6.232
 C   11.513  10.453   3.866
 H   12.000  12.637   5.542
 O   12.727  10.529   4.052
 H    9.601  11.260  -3.176
 H   12.124   9.022   0.939
 O   14.547   7.817  -1.279
 H   13.857   8.904   0.944
 O   15.192   8.470   1.828
 H   16.067   6.935   0.008
 N   16.974   6.847   0.381
 H   17.574   6.083   0.070
 H   17.553   8.302   3.848
 C   17.443   7.812   1.371
 H   18.131   7.284   1.997
 C    6.887  13.664  -1.350
 N    8.032  12.814  -1.646
 O    6.528  17.896  -2.080
 O    8.614  14.117  -3.393
 H    6.424  14.071  -2.225
 C    7.292  14.915  -0.550
 H   11.065  16.293   4.602
 C   11.521  16.945   5.317
 C    9.537  18.544   5.194
 H    7.622  18.315   1.668
 H    9.137  18.775   4.229
 C    7.387  19.243   1.190
 H   11.584  18.954   5.792
 C   11.095  18.362   5.046
 H   10.340  11.783  -6.701
 H   10.922  11.670  -8.345
 H   23.575  29.696  14.540
 C   20.625  30.359  14.524
 N   16.729  28.283  13.370
 C   17.799  27.628  13.799
 O   18.794  27.456  13.113
 H   20.549  24.275  13.873
 H   13.888   8.931  -2.865
 O   12.052  10.766  -3.999
 H   12.562  10.771  -6.774
 C   13.072   9.652  -0.897
 H   12.058   9.726  -1.232
 C   13.885   8.719  -1.786
 N   13.024   9.137   0.474
 C    8.832  13.128  -2.672
 H    9.665  14.578   1.729
 H   11.096  14.206   3.672
 C   10.968  13.414   2.964
 C   10.571  14.020   1.616
 H   10.421  13.236   0.903
 C   10.004  12.229  -2.965
 C   16.334   8.328   2.257
 H   14.806   9.376   3.920
 N   16.672   8.585   3.514
 H   11.875  12.865   2.818
 C   15.755   9.281   4.404
 H   12.586  16.872   5.239
 C   14.714  14.799   8.014
 O   13.822  13.222   5.884
 N   15.542  14.239   6.941
 C   14.762  16.314   8.114
 C   15.018  13.507   5.961
 H   14.671  11.501   4.257
 H   16.512  14.409   6.946
 O   17.542  10.636   5.104
 H   21.046  28.279  14.408
 H   19.718  30.280  13.962
 C   21.553  29.189  14.165
 H   19.076  31.974  12.267
 C   18.724  32.983  12.207
 H   18.549  35.184  10.517
 O   22.975  29.578  12.252
 C   21.870  29.183  12.682
 C    8.324  17.137  -0.702
 H    8.402  17.104   0.365
 N    7.997  15.816  -1.220
 H    8.318  15.578  -2.120
 C    7.227  18.114  -1.090
 N    6.922  19.074  -0.214
 C    5.896  20.066  -0.556
 C    5.694  20.874   0.729
 H    5.010  19.569  -0.891
 H    6.167  21.833   0.696
 H   14.122  33.545  11.257
 H   14.376  32.846  10.109
 C   17.653  34.600  10.517
 H   16.060  32.667  11.566
 H   16.979  34.980  11.256
 H   11.822  35.430   7.445
 C    9.718  32.168   9.444
 O    8.591  31.192   3.104
 C    7.752  31.004   4.015
 C    8.029  31.534   5.402
 O    9.671  33.706   7.056
 H    7.516  32.468   5.498
 H    7.685  30.816   6.117
 N    9.698  31.685   8.062
 O   11.818  31.072   9.679
 H   13.225  32.347   8.166
 C    9.632  32.481   6.994
 C    9.512  31.798   5.651
 H    9.912  32.431   4.887
 H    9.736  30.713   7.912
 C   14.957  25.345  11.321
 H   14.642  27.724  11.875
 H   15.345  24.358  11.177
 H   14.137  25.507  10.653
 H   16.869  26.203  11.708
 H   19.256  25.032  12.974
 H   17.391  23.631  12.125
 C   18.009  22.769  12.263
 C   18.969  23.017  13.388
 H   18.556  22.575  11.364
 C   16.049  26.365  11.040
 C   16.190  30.132  11.811
 C   16.588  28.651  11.955
 C   12.931  36.548   6.216
 H   14.691  29.309  10.080
 C   15.504  27.755  11.242
 C   16.710  32.257  10.821
 N   16.991  30.863  11.053
 C   17.999  33.119  10.844
 N   14.888  32.608   9.302
 H   17.937  37.797   7.502
 N   13.398  34.131   6.334
 H   15.225  36.962   7.602
 H   12.802  33.376   6.124
 O   14.714  34.991   7.894
 C   14.238  32.655   8.011
 C   14.181  34.034   7.393
 H   17.193  34.654   9.553
 H   17.107  34.859   7.209
 C   17.754  35.226   6.440
 H   14.358  35.494   5.093
 C   19.138  35.441   7.022
 H   16.218  36.362   5.538
 H   19.083  36.153   7.819
 C   17.200  36.561   5.913
 C   17.078  37.773   6.865
 H   17.940  36.875   5.207
 H   19.792  35.808   6.259
 C   16.155  32.252   9.420
 H   17.786  30.451  10.644
 H   18.672  32.764  10.092
 H   19.515  34.513   7.399
 H   21.060  32.861   9.815
 C   21.797  33.496   9.368
 H   21.311  34.299   8.854
 H   22.434  33.894  10.130
 H   23.215  34.377   7.211
 H   24.318  33.988   8.509
 H    7.135  30.751   1.118
 C    6.523  28.938   0.561
 N    6.476  28.028  -0.411
 N    5.925  28.688   1.719
 H   11.085  17.171   2.619
 O    5.343  21.294  -2.509
 H    5.534  20.209  -4.795
 O    5.613  20.369  -5.715
 H    6.227  17.906  -5.126
 H    7.693  14.455  -7.074
 H    6.459  16.700  -7.032
 C    6.914  18.362  -5.808
 C    7.316  17.305  -6.819
 C    6.205  19.552  -6.439
 O    6.323  19.742  -7.666
 H    8.232  16.098  -5.339
 C   11.065  12.148  -7.398
 H   10.949  13.206  -7.511
 C    8.442  16.392  -6.346
 C    8.514  15.172  -7.224
 H    7.679  17.823  -7.682
 O    9.413  15.013  -8.040
 H   11.349  14.670   1.274
 H   10.652  12.235  -2.113
 N   10.778  12.616  -4.125
 H   10.525  13.410  -4.650
 H   12.449  11.951   0.482
 H   11.916  12.126  -1.172
 C   12.766  12.134  -0.523
 N    7.143  30.102   0.378
 C   13.370  35.302   5.456
 H   11.530  34.633   4.628
 C   12.459  35.018   4.263
 H   12.331  35.939   3.733
 C    9.899  34.575   2.137
 N    8.657  34.143   2.300
 H    8.478  33.179   2.385
 H   11.048  36.183   1.801
 N   10.126  35.860   1.922
 H   13.943  14.103   3.538
 C   16.373  10.584   4.732
 H   14.621  12.731   2.656
 N   15.582  11.636   4.604
 C   16.003  12.986   4.955
 H   16.994  12.970   5.358
 H   18.606  10.204   2.388
 H   19.780   8.893   2.119
 H   21.488  10.902   2.573
 N    7.520  21.355  -1.868
 C    6.244  20.969  -1.727
 H    6.440  24.078  -1.661
 C    7.122  24.513  -2.361
 H    6.648  24.596  -3.317
 C   15.081  28.324   9.932
 H   15.923  28.369   9.274
 H   14.324  27.702   9.501
 O   12.303  31.618   5.504
 H   12.322  29.213   7.768
 N   10.296  30.560   5.587
 H   13.488  28.120   7.063
 H    9.823  29.697   5.568
 H    8.928  18.072  -3.248
 H    7.796  18.714  -5.314
 H    7.190  22.249  -3.692
 H    7.100  30.645  -1.609
 H    6.917  28.205  -1.273
 H    7.431  30.109  -5.017
 C    7.828  30.471  -0.844
 H    7.411  25.485  -2.021
 H   12.363  35.100   1.586
 H   10.691  32.753   2.137
 C   12.310  34.101   1.966
 N   10.903  33.713   2.088
 C    8.623  31.716  -0.644
 H    9.297  31.553   0.171
 H    7.954  32.524  -0.433
 H    8.677  34.531  -1.515
 N    9.661  34.528  -1.525
 H   10.170  35.409  -1.454
 H    8.748  32.342  -2.632
 H    7.773  31.306  -6.243
 C    8.028  30.334  -5.876
 H    7.844  29.606  -6.638
 H    9.986  31.612  -7.043
 O   12.274  32.150  -8.406
 H   17.538  28.492  11.488
 H   20.016  28.549  12.314
 H   16.385  26.258  10.030
 H   24.752  26.174  13.616
 O   19.231  29.943   9.912
 C   19.843  24.144  13.080
 N   20.893  28.726  11.903
 H   23.668  27.118  12.623
 C   24.206  26.196  12.696
 H   23.517  25.378  12.671
 H   20.365  23.951  12.166
 H   26.412  24.701  12.598
 C    9.677  17.594  -1.299
 H    9.857  18.414   2.603
 H    8.176  21.057  -1.197
 H    8.285  19.823   1.229
 O    9.952  18.951  -0.924
 H    9.260  19.531  -1.279
 H    8.458  23.015  -0.448
 C   10.910  18.225   2.567
 C   11.553  18.874   3.682
 H   12.598  18.659   3.605
 H   11.343  19.922   3.628
 H   14.786  10.796   0.899
 C   14.745  13.761   2.918
 C   13.757  11.033  -0.959
 C   11.826  11.894  -4.472
 C   12.749  12.509  -5.485
 C   12.502  11.835  -6.868
 H   13.444  11.869  -8.801
 C   13.593  12.322  -7.843
 C   15.032  11.016  -0.119
 H   15.507  11.973  -0.172
 H   15.697  10.267  -0.495
 H   14.046  11.256  -1.965
 H   17.456   9.715   0.390
 C   19.183   9.659   1.670
 C   18.177   8.988   0.701
 H   18.723   8.608  -0.137
 H   19.532  11.263   0.348
 C   20.095  10.640   1.011
 H   20.844  10.118   0.453
 C    9.688  17.449  -2.825
 H    9.500  16.429  -3.088
 O   10.948  15.389  -5.534
 N    9.719  17.083  -6.361
 H   12.547  13.555  -5.582
 H   10.444  16.962  -0.903
 H   11.310  18.609   1.652
 H   13.536  13.386  -7.939
 N   14.135  12.391  -5.049
 O   14.652  14.514  -5.518
 H   14.461  11.520  -4.727
 H   14.556  12.049  -7.466
 H   21.947  19.424  10.972
 H   26.237  27.592  12.591
 H   25.791  30.516  11.757
 O   27.567  29.927  10.938
 H   24.603  28.643  10.906
 C   22.647  32.673   8.359
 C   23.698  33.581   7.738
 C   26.383  29.770  11.208
 C   26.120  27.284  11.573
 H   27.033  26.951  11.124
 C   25.653  28.510  10.750
 H   23.126  31.875   8.887
 H   24.300  33.016   7.057
 C   21.047  28.473  10.476
 H   19.334  27.327  10.275
 C   20.382  27.135  10.174
 H   20.788  26.416  10.855
 H   17.130  12.731  -0.518
 H   15.912  12.683  -2.591
 H   16.687  12.182  -4.745
 C   14.972  13.423  -5.073
 H   13.247  13.088  -0.577
 H   12.714  15.377  -3.055
 C   14.742  14.561   1.698
 H   13.806  14.439   1.194
 H   15.537  14.239   1.058
 H   14.881  15.592   1.947
 H   12.695  15.459  -1.310
 H   17.117  12.521   2.455
 C   16.040  13.915   3.699
 H   16.156  14.928   4.024
 C   17.229  13.534   2.782
 H   18.145  13.634   3.326
 H   19.983  11.823   2.736
 C   20.751  11.491   2.069
 N   21.776  18.789   8.589
 C   25.161  26.082  11.544
 C   25.895  24.743  11.662
 H   25.187  23.942  11.610
 H   22.812  20.875  10.741
 N   22.376  20.074  10.370
 H   33.961  24.978   4.067
 H   22.082  28.445  10.207
 C   20.381  29.596   9.664
 H   19.904  31.780   8.258
 H   22.069  29.901   8.647
 N   21.122  30.163   8.715
 C   21.767  32.023   7.262
 H   21.344  32.808   6.670
 H   10.644  17.745  -3.204
 C    9.101  23.485  -1.163
 C    7.990  22.207  -2.983
 C    8.375  23.616  -2.484
 H   14.771  32.010   7.344
 H   13.783  29.842   7.046
 O   16.857  31.950   8.464
 H   12.909  33.062   3.727
 C   13.030  34.044   3.318
 C   11.629  30.567   5.554
 C   13.031  29.084   6.978
 H   11.563  28.447   5.537
 O   11.832  28.015   3.171
 C   12.324  29.192   5.642
 N   13.301  28.967   4.569
 C   20.617  31.144   7.775
 H   17.748  28.203   7.490
 H   18.514  25.916   8.729
 C   19.490  25.490   8.627
 H   15.846  26.771   7.812
 H   19.634  24.743   9.380
 O   15.762  26.696   6.882
 H   16.330  29.262   7.307
 H   14.067  34.265   3.172
 C   17.047  28.642   6.811
 H   18.162  31.112   7.182
 H   14.243  29.204   4.727
 O   15.843  30.678   5.237
 C   17.798  34.207   5.340
 H   16.812  34.058   4.952
 H   18.173  33.282   5.726
 H   18.440  34.554   4.558
 N   18.626  30.444   6.627
 C   19.940  30.412   6.617
 H   22.414  31.371   6.713
 C    9.435  32.061  -1.862
 H    8.485  29.677  -1.133
 H    9.685  31.030  -4.735
 C    9.483  30.307  -5.497
 H    9.377  24.457  -0.810
 C   17.853  29.516   5.837
 H   16.250  32.058   3.163
 H   13.883  17.342  -0.153
 O    9.973  20.911  -2.929
 C    9.255  21.636  -3.581
 H    8.975  22.479  -5.382
 H    8.655  21.143  -9.057
 N    9.588  21.960  -4.812
 H    9.026  24.087  -3.191
 H   10.122  29.872  -7.463
 C   10.876  16.500  -6.065
 H    9.728  18.037  -6.604
 O   10.013  19.733  -7.494
 C   10.096  20.950  -7.647
 N    9.305  21.627  -8.498
 H    9.376  22.607  -8.562
 C   12.141  17.335  -6.327
 H   12.777  16.089  -7.900
 C   12.618  17.139  -7.766
 H   11.910  18.369  -6.176
 H   11.844  17.593  -8.349
 C   13.889  17.846  -8.247
 C   13.942  17.794  -9.731
 H   13.951  16.773 -10.052
 H   14.830  18.283 -10.074
 H   13.084  18.288 -10.136
 C   13.297  15.592  -2.184
 H   13.607  16.036  -5.499
 H   14.136  14.929  -2.143
 C   16.450  13.476  -3.067
 H   16.061  14.470  -3.001
 N   13.199  16.926  -5.401
 C   13.781  17.005  -2.245
 H   12.930  17.652  -2.285
 H   14.747  17.352  -7.841
 H    9.258  28.775  -4.079
 C    9.845  28.975  -4.951
 H    9.655  28.224  -5.689
 H   10.876  26.554  -0.604
 H   10.901  22.801  -7.022
 H   11.346  24.778  -6.764
 H   11.675  26.855  -8.824
 N   11.348  26.008  -8.443
 H   10.545  25.543  -8.867
 H   10.018  31.206  -2.135
 C   10.303  30.637  -6.738
 C   12.459  31.075  -7.877
 H   12.163  29.391  -0.637
 H   12.790  33.414   1.302
 O   14.412  30.939   1.615
 C   10.385  33.251  -1.642
 H   10.904  33.106  -0.717
 O   10.964  33.682  -3.906
 H   17.246  14.184   1.932
 N   21.413  12.705   1.509
 H   21.814  13.255   2.269
 H   22.153  12.423   0.866
 H   11.045  20.470  -5.163
 C   11.068  21.763  -6.823
 H    9.981  22.891  -1.297
 C   16.316  27.513   6.146
 O   16.236  27.458   4.905
 C   12.958  28.456   3.394
 C   10.914  21.521  -5.319
 O   13.169  18.861  -4.263
 O   11.716  23.574  -4.429
 H   10.957  28.813  -1.761
 H   10.883  28.966  -4.692
 C   11.816  30.740  -6.534
 O   12.709  27.701  -6.765
 C   12.006  28.877  -1.562
 H   11.296  26.911  -2.939
 C   13.238  32.289  -1.373
 H   13.322  33.061  -0.637
 H   12.719  31.493  -0.881
 C   11.348  33.305  -2.780
 N   12.134  31.727  -5.504
 N   12.533  32.711  -2.598
 H   11.555  32.517  -5.405
 H   13.326  33.623  -4.343
 C   13.443  32.743  -3.746
 H   12.210  29.808  -6.186
 H   13.095  30.299  -8.328
 C   13.174  31.592  -4.703
 H   15.178  33.628  -2.857
 C   11.917  26.658  -0.379
 H   12.031  27.157   0.561
 C   20.532  26.573   8.786
 H   19.585  25.043   7.659
 C   22.367  19.871   9.064
 H   24.653  26.100  10.603
 H   26.598  24.650  10.861
 H   24.349  21.607   9.459
 H   22.640  26.839   8.737
 H   20.382  27.316   8.030
 H   22.126  25.291   9.363
 O   24.136  29.472   8.578
 H   26.692  27.752   9.074
 N   25.905  28.285   9.330
 C   21.939  26.039   8.621
 H   23.054  22.679   8.916
 H   25.829  23.791   8.545
 H   30.142  25.293   6.046
 C   30.072  24.227   6.100
 H   29.654  23.876   7.020
 C   31.512  23.694   5.995
 H   31.501  22.888   5.291
 C   32.521  24.750   5.469
 H   31.828  23.377   6.967
 H   33.123  23.495   4.001
 N   33.268  24.374   4.419
 O   32.666  25.860   6.038
 H   12.292  20.226  -0.316
 H   11.547  21.546   0.553
 H   12.608  25.703  -2.565
 H   11.944  22.107  -1.785
 C   12.438  21.217   0.060
 H   12.889  23.121  -0.657
 H   12.368  25.689  -0.326
 C   12.754  22.151  -1.088
 H   13.251  21.219   0.755
 C   23.728  21.896   8.637
 N   22.952  20.730   8.230
 H   21.760  18.622   7.619
 H   16.963  14.469  -0.593
 C   17.591  13.640  -0.845
 H   18.540  13.752  -0.363
 C   16.390  13.196  -4.575
 H   16.239  14.586  -8.014
 C   16.760  15.421  -8.434
 H   16.391  15.613  -9.420
 C   17.787  13.595  -2.330
 C   18.678  12.463  -2.705
 H   18.223  11.539  -2.414
 H   18.833  12.467  -3.764
 H   19.619  12.569  -2.206
 C   13.618  17.726  -4.436
 C   14.628  17.162  -3.514
 H   15.100  16.237  -3.770
 C   14.518  17.455  -1.007
 H   16.604  16.283  -7.820
 H   17.392  15.016  -4.996
 N   17.295  14.086  -5.303
 O   17.993  12.504  -6.743
 H   18.360  14.249  -9.119
 H   18.579  16.525 -10.074
 H   18.826  17.171  -8.470
 C   17.989  13.688  -6.360
 C   18.229  15.113  -8.501
 C   18.967  16.317  -9.099
 C   18.832  14.773  -7.068
 H   22.462  12.430  -4.091
 H   21.836  11.916  -5.639
 C   22.071  12.763  -5.030
 N   20.177  14.227  -7.192
 H   20.279  13.321  -7.563
 H   20.011  16.096  -9.170
 H   22.401  13.336  -7.775
 H   24.124  12.113  -6.521
 O   24.323  12.880  -5.961
 H   21.508  17.785   5.611
 H   22.853  20.565   7.265
 H   25.511  21.782   7.443
 C   25.127  28.763   8.364
 H   24.222  24.412   8.056
 C   25.491  28.352   6.938
 H   24.295  30.044   6.377
 O   26.947  26.291   7.775
 H   26.549  28.498   6.871
 C   26.029  26.025   6.996
 N   25.123  26.955   6.645
 C   24.719  29.176   5.916
 H   25.349  29.524   5.125
 H   22.046  25.610   7.647
 N   15.750  18.102  -3.440
 H   18.248  14.515  -2.623
 O   17.342  16.586  -3.904
 H   14.796  18.483  -1.111
 H   15.398  16.859  -0.879
 O   18.660  23.054   5.417
 H   19.618  15.803   1.847
 H   19.088  16.640  -0.037
 O   20.531  15.682   1.672
 O   22.233  15.970   0.265
 C   22.272  19.337   4.844
 O   21.836  18.647   5.778
 C   25.087  23.849   7.776
 C   24.646  22.409   7.505
 H   27.256  23.032   6.600
 O   22.714  20.482   5.029
 H   20.022  20.183   3.669
 H   18.388  21.604   3.554
 H   29.081  22.731   4.928
 N   29.667  24.280   3.667
 H   29.903  25.232   3.582
 H   29.797  23.673   2.858
 H   22.725  28.413   5.964
 C   23.625  28.254   5.407
 O   20.567  29.833   5.740
 H   13.107  20.796  -4.253
 C   11.922  22.373  -4.576
 H   14.098  20.766  -1.891
 H   15.355  21.821  -0.149
 C   15.302  30.382   2.289
 C   16.945  30.292   4.886
 C   16.548  31.148   2.684
 C   14.043  28.331   2.349
 H   13.660  28.702   1.421
 N   15.213  29.111   2.702
 H   14.324  27.302   2.261
 O   14.731  24.675   1.645
 H   19.825  25.504   5.488
 H   18.073  25.671   5.399
 H   15.934  28.711   3.239
 H   18.480  28.890   5.237
 O   16.399  25.780   2.453
 C   18.845  23.903   4.520
 H   18.316  26.613   3.271
 C   18.957  25.372   4.876
 N   19.106  26.199   3.688
 N   17.364  30.439   3.645
 H   16.729  31.998   0.776
 H   18.342  33.128   2.232
 H   18.233  30.066   3.372
 C   17.328  31.419   1.447
 H   19.207  31.625   2.444
 C   18.601  32.197   1.773
 H   19.146  32.383   0.871
 H   19.344  29.563   2.695
 O   20.188  29.407   3.146
 H   23.418  28.449   4.375
 O   17.693  30.177   0.863
 H   12.487  29.413  -2.353
 C   12.330  26.721  -2.741
 H   12.797  28.170  -4.241
 C   12.592  27.472  -1.469
 H   18.234  29.672   1.490
 H   13.636  27.592  -1.270
 C   14.041  21.833  -1.837
 H   15.564  19.039  -3.202
 H   13.862  19.291  -6.713
 N   12.983  21.755  -4.066
 H   12.057  21.462  -7.099
 H   17.153  18.517  -6.162
 H   13.045  19.776  -8.179
 H   12.295  25.346  -4.791
 C   12.472  26.569  -6.331
 N   12.560  26.257  -5.054
 C   12.025  25.431  -7.271
 C   13.897  19.266  -7.782
 C   13.248  24.643  -7.708
 H   12.948  23.856  -8.367
 H   13.929  25.294  -8.216
 H   14.791  19.747  -8.121
 C   17.019  17.743  -3.682
 C   17.844  19.330  -6.078
 H   18.380  19.440  -6.998
 C   13.017  27.151  -4.001
 H   13.729  24.225  -6.848
 C   14.564  31.823  -1.917
 H   14.553  30.779  -2.151
 O   13.897  30.587  -4.698
 H   15.338  31.971  -1.194
 C   14.813  32.658  -3.125
 C   20.084  16.745  -0.413
 C   21.023  16.088   0.586
 H   23.117  18.429   3.151
 H   21.414  18.070   3.421
 C   13.979  22.449  -3.233
 H   13.708  23.482  -3.160
 O   15.779  21.111  -4.072
 H   17.178  26.280   2.306
 C   15.759  25.336   1.493
 H   16.822  27.603   0.479
 O   15.008  25.915  -3.588
 C   15.345  22.255  -3.870
 H   15.405  25.806  -0.519
 H   15.616  24.231  -4.111
 H   17.309  20.232  -5.867
 C   14.518  27.005  -3.822
 H   14.877  28.895  -4.377
 N   15.266  28.090  -3.963
 O   16.417  29.019  -1.338
 H   15.555  32.252  -3.780
 H   16.956  30.212  -3.645
 H   16.441  29.540  -5.959
 H   17.620  31.647  -5.419
 H   18.180  31.000  -6.942
 H   19.752  18.927   1.327
 C   16.258  25.572   0.084
 H   16.731  22.466   1.922
 H   18.867  24.329   2.557
 N   18.819  23.600   3.217
 H   23.303  26.187   5.854
 H   24.103  22.384   6.584
 H   25.988  20.539   4.460
 C   25.757  24.566   6.593
 C   24.096  26.855   5.591
 C   27.747  24.395   5.208
 H   25.101  24.548   5.748
 N   26.992  23.877   6.169
 O   27.349  25.330   4.547
 C   29.141  23.799   4.960
 C   15.323  22.264  -1.122
 H   16.172  21.943  -1.688
 H   16.759  24.688  -0.251
 H   15.339  23.330  -1.030
 H   17.633  19.751  -3.303
 C   18.721  22.211   2.738
 C   17.682  22.117   1.578
 O   18.383  19.523  -0.846
 H   17.595  21.099   1.259
 N   20.536  20.559   2.918
 H   24.447  21.103   4.923
 N   25.255  21.190   4.368
 C   22.169  18.827   3.447
 N   20.524  18.868   0.719
 H   20.202  16.264  -1.361
 H   18.833  15.686  -6.510
 H   21.185  13.339  -4.863
 C   18.113  18.843  -3.603
 N   19.152  18.428  -2.643
 O   19.740  20.123  -4.831
 C   18.810  19.051  -4.967
 H   19.856  17.823  -2.970
 H   19.310  18.144  -5.234
 C   20.355  18.227  -0.584
 C   21.280  14.889  -6.829
 O   21.299  16.005  -6.275
 C   22.568  14.162  -7.116
 H   23.355  14.481  -5.130
 C   23.128  13.638  -5.748
 N   23.517  15.041  -7.794
 H   24.238  15.441  -7.257
 H   23.481  15.267  -8.788
 C   21.779  19.912   2.496
 N   26.467  22.303   2.795
 C   20.319  26.393   3.168
 H   23.521  22.877   3.846
 C   25.357  22.185   3.495
 H   24.518  26.474   4.685
 H   24.044  25.108   3.171
 H   21.997  28.502   2.773
 O   21.316  25.867   3.637
 C   19.212  18.807  -1.371
 C   20.089  21.661   2.292
 H   18.008  22.721   0.757
 H   21.267  18.397  -1.117
 C   21.693  19.374   1.107
 H   22.537  20.668   2.503
 N   24.362  23.068   3.371
 O   20.749  22.243   1.403
 H   26.562  23.034   2.143
 H   19.695  21.758  -1.109
 C   21.063  28.678   2.282
 H   21.721  30.438   1.283
 N   16.044  23.346  -4.167
 H   19.266  20.934  -4.589
 C   18.555  26.446   0.653
 H   18.735  28.342   1.256
 C   17.227  26.751  -0.026
 C   20.441  27.290   1.920
 N   19.163  27.455   1.257
 O   19.003  25.309   0.692
 H   21.101  26.798   1.236
 H   20.339  29.668   0.542
 C   21.279  29.499   1.024
 H   21.930  28.970   0.360
 C   16.809  28.098  -1.992
 C   16.672  28.114  -3.511
 N   17.407  27.054  -1.437
 C   18.151  30.843  -5.884
 C   17.441  23.243  -4.575
 H   17.606  22.273  -4.994
 H   16.280  22.213  -6.918
 H   15.843  24.557  -6.445
 C   16.672  22.956  -7.581
 C   16.809  24.299  -6.827
 H   17.203  24.987  -7.546
 H   16.008  23.079  -8.411
 H   17.633  22.646  -7.935
 H   19.225  21.722  -3.489
 N   19.121  22.530  -2.936
 H   19.424  23.229  -6.509
 H   17.112  27.217  -3.895
 C   17.444  29.528  -5.585
 H   17.708  25.305  -5.211
 C   17.805  24.332  -5.644
 H   17.675  27.463  -6.046
 H   18.167  28.543  -7.328
 C   17.416  29.342  -4.065
 C   18.170  28.385  -6.270
 H   19.149  30.806  -5.501
 O   22.642  19.502   0.361
 C   18.305  23.504  -3.345
 H   17.982  26.475  -1.988
 O   18.262  24.613  -2.802
 C   19.271  24.191  -6.067
 H   18.439  29.186  -3.791
 H   19.180  28.343  -5.919
 H   21.752  22.467  -0.019
 H   19.507  23.507  -1.167
 H   22.614  24.077   1.501
 C   24.429  24.306   2.576
 H   25.456  24.444   2.308
 C   19.857  22.642  -1.690
 H   23.926  22.221   0.879
 H   23.241  20.712  -1.923
 C   23.126  18.649  -3.777
 H   22.143  17.605  -5.182
 O   22.167  19.280  -3.351
 N   24.074  21.101  -2.275
 N   23.020  17.775  -4.767
 H   24.483  18.488  -2.190
 H   23.818  17.296  -5.088
 C   24.512  18.849  -3.197
 H   25.931  20.347  -2.705
 H   25.212  18.314  -3.804
 C   24.171  23.147   0.403
 N   22.117  22.755  -0.887
 C   23.646  24.256   1.283
 H   25.227  23.274   0.290
 H   23.753  25.190   0.772
 C   21.324  22.800  -1.940
 C   23.533  23.126  -0.985
 O   21.750  22.958  -3.056
 C   24.950  20.312  -3.132
 H   24.060  21.385  -4.875
 O   26.015  20.853  -5.202
 H   20.419  26.797  -2.012
 H   21.880  26.107  -1.347
 H   21.872  27.762  -1.907
 H   19.901  24.293  -5.208
 C   21.487  26.779  -2.081
 H   20.292  27.284  -4.423
 H   19.512  24.953  -6.779
 H   21.499  25.327  -3.613
 C   21.358  27.241  -4.506
 H   21.625  26.889  -5.481
 H   21.768  28.218  -4.354
 C   24.413  22.356  -1.973
 C   21.900  26.309  -3.475
 H   23.497  24.103  -1.419
 H   23.534  23.734  -4.290
 O   25.398  22.903  -2.461
 C   24.980  20.893  -4.527
 H   23.728  25.508  -2.897
 C   23.430  26.234  -3.624
 C   24.020  25.701  -4.954
 N   23.819  24.255  -5.075
 H   23.973  23.784  -5.967
 H   23.809  27.225  -3.485
 H   23.501  26.203  -5.744
 C   25.511  26.005  -5.072
 H   26.195  25.291  -4.590
 O   25.907  26.959  -5.732
