652
  DNA double-helix decamer
O         -4.40100        6.30600       17.04200
C         -3.42900        6.83000       17.98200
C         -2.15700        7.19800       17.25200
O         -1.37100        5.98200       17.04200
C         -2.32400        7.78400       15.85200
O         -1.20500        8.57500       15.46200
C         -2.39300        6.54600       14.97200
C         -1.43600        5.59800       15.68200
N         -1.85700        4.17200       15.63200
C         -0.86600        3.20500       15.48200
O          0.31400        3.56700       15.39200
N         -1.40000        1.79300       15.43200
C         -2.51500        1.54200       15.53200
N         -2.81500        0.25300       15.48200
C         -3.55200        2.51600       15.68200
C         -3.16400        3.81900       15.73200
H         -3.84000        7.72500       18.47200
H         -3.20600        6.06600       18.74100
H         -1.60100        7.91400       17.87400
H         -0.44200        5.68900       15.21900
H         -3.41300        6.13500       14.94000
H         -2.05400        6.76400       13.94800
H         -3.24400        8.38200       15.78200
H         -3.91800        4.59500       15.85400
H         -4.60000        2.22900       15.75200
H         -2.06700       -0.44600       15.36400
H         -3.79600       -0.05100       15.56100
P         -0.88600        8.77100       13.91200
O         -0.27400       10.09600       13.69200
O         -2.10700        8.48100       13.12200
O          0.19200        7.62300       13.66200
C          1.28600        7.47600       14.60200
C          2.53000        7.02600       13.87200
O          2.45200        5.58000       13.66200
C          2.74000        7.59900       12.47200
O          4.11100        7.58000       12.08200
C          1.95700        6.63800       11.59200
C          2.17400        5.30800       12.30200
N          0.99500        4.40200       12.25200
C         -0.34700        4.71000       12.33200
N         -1.13900        3.67200       12.25200
C         -0.26600        2.59100       12.11200
C         -0.53700        1.21000       11.98200
O         -1.62300        0.63100       11.96200
N          0.64800        0.46300       11.86200
C          1.92200        0.99300       11.86200
N          2.92400        0.11800       11.73200
N          2.17800        2.29200       11.99200
C          1.04500        3.03300       12.11200
H          1.47900        8.44200       15.09100
H          1.01700        6.72700       15.36100
H          3.40100        7.27800       14.49400
H          3.03200        4.79700       11.83900
H          0.89000        6.90400       11.56000
H          2.36000        6.61500       10.56800
H          2.34800        8.62400       12.40200
H         -0.71500        5.72800       12.45100
H          0.56100       -0.52900       11.76900
H          3.90000        0.44800       11.73200
H          2.72100       -0.88700       11.63100
P          4.48400        7.55100       10.53200
O          5.75800        8.26400       10.31200
O          3.32600        8.03500        9.74200
O          4.68100        5.98900       10.28200
C          5.48000        5.22800       11.22200
C          6.22200        4.13100       10.49200
O          5.30900        3.00800       10.28200
C          6.72800        4.47200        9.09200
O          7.82600        3.65100        8.70200
C          5.53000        4.15400        8.21200
C          4.92400        2.95100        8.92200
N          3.43700        2.91100        8.87200
C          2.55800        3.95700        8.95200
N          1.31200        3.59500        8.88200
C          1.37400        2.22200        8.73200
C          0.37600        1.23300        8.60200
N         -0.92800        1.49600        8.59200
N          0.78000       -0.04100        8.48200
C          2.08200       -0.30600        8.49200
N          3.10200        0.51600        8.61200
C          2.66600        1.78400        8.73200
H          6.20400        5.89600       11.71000
H          4.82300        4.78100       11.98200
H          7.07500        3.82300       11.11400
H          5.31800        2.03400        8.45900
H          4.82400        4.99600        8.17900
H          5.84300        3.89800        7.18800
H          7.01300        5.53200        9.02200
H          2.87300        4.99400        9.06300
H         -1.25800        2.46700        8.68200
H         -1.60700        0.72800        8.49300
H          2.34200       -1.35300        8.38500
P          8.11100        3.40800        7.15200
O          9.56000        3.23600        6.93200
O          7.45800        4.48000        6.36200
O          7.35300        2.02900        6.90200
C          7.55100        0.94300        7.84200
C          7.50700       -0.38000        7.11200
O          6.10800       -0.75200        6.90200
C          8.11600       -0.40200        5.71200
O          8.52300       -1.71200        5.32200
C          6.96000        0.04500        4.83200
C          5.76300       -0.57200        5.54200
N          4.53700        0.26900        5.49200
C          4.44100        1.63300        5.57200
N          3.22000        2.07200        5.50200
C          2.46200        0.92400        5.35200
C          1.07400        0.71100        5.22200
N          0.17400        1.69000        5.21200
N          0.65200       -0.55600        5.10200
C          1.55000       -1.53700        5.11200
N          2.85800       -1.47100        5.23200
C          3.25100       -0.18900        5.35200
H          8.52900        1.05800        8.33100
H          6.75600        0.96800        8.60100
H          8.01600       -1.13100        7.73400
H          5.54300       -1.54500        5.07900
H          6.88400        1.14200        4.79900
H          7.06300       -0.34600        3.80800
H          8.96900        0.28900        5.64200
H          5.30500        2.28700        5.68300
H          0.47800        2.67000        5.30200
H         -0.82700        1.46800        5.11300
H          1.14500       -2.53700        5.00500
P          8.61100       -2.07600        3.77200
O          9.68100       -3.06700        3.55200
O          8.71200       -0.82500        2.98200
O          7.18600       -2.74600        3.52200
C          6.70800       -3.74100        4.46200
C          5.89500       -4.78500        3.73200
O          4.54400       -4.26400        3.52200
C          6.37500       -5.16200        2.33200
O          5.93400       -6.46000        1.94200
C          5.70300       -4.12000        1.45200
C          4.37100       -3.91600        2.16200
N          3.87400       -2.51400        2.11200
C          4.59700       -1.35500        2.19200
N          3.86800       -0.28100        2.12200
C          2.58100       -0.76500        1.97200
C          1.33200       -0.12200        1.84200
N          1.17900        1.20000        1.83200
N          0.24600       -0.89900        1.72200
C          0.39500       -2.22000        1.73200
N          1.49300       -2.93600        1.85200
C          2.56400       -2.12900        1.97200
H          7.56700       -4.22300        4.95100
H          6.07900       -3.25400        5.22100
H          5.86600       -5.69100        4.35400
H          3.62100       -4.57400        1.69900
H          6.28600       -3.18800        1.42000
H          5.55700       -4.49600        0.42800
H          7.47200       -5.10500        2.26200
H          5.68000       -1.33400        2.30300
H          2.00100        1.81400        1.92200
H          0.23900        1.60900        1.73300
H         -0.52100       -2.79000        1.62500
P          5.79100       -6.80600        0.39200
O          6.07500       -8.23700        0.17200
O          6.60900       -5.85400       -0.39800
O          4.24500       -6.51000        0.14200
C          3.27300       -7.03400        1.08200
C          2.00100       -7.40200        0.35200
O          1.21500       -6.18600        0.14200
C          2.16800       -7.98800       -1.04800
O          1.04900       -8.77900       -1.43800
C          2.23700       -6.75000       -1.92800
C          1.28000       -5.80200       -1.21800
N          1.70100       -4.37600       -1.26800
C          0.70900       -3.43000       -1.41800
O         -0.47100       -3.72100       -1.50800
N          1.14500       -2.12100       -1.45800
C          2.44600       -1.68600       -1.36800
O          2.71700       -0.48000       -1.41800
C          3.41500       -2.74400       -1.21800
C          4.84700       -2.31600       -1.10800
C          3.02700       -4.03400       -1.16800
H          3.68500       -7.92900        1.57200
H          3.05000       -6.27000        1.84100
H          1.44500       -8.11800        0.97400
H          0.28600       -5.89300       -1.68100
H          3.25700       -6.33900       -1.96000
H          1.89800       -6.96800       -2.95200
H          3.08900       -8.58600       -1.11800
H          3.77600       -4.81600       -1.04700
H          5.34900       -2.46100       -2.07700
H          5.35200       -2.91900       -0.34000
H          4.89200       -1.25300       -0.82800
H          0.44300       -1.41700       -1.56400
P          0.73000       -8.97500       -2.98800
O          0.11800      -10.30000       -3.20800
O          1.95100       -8.68500       -3.77800
O         -0.34800       -7.82700       -3.23800
C         -1.44200       -7.68000       -2.29800
C         -2.68600       -7.23000       -3.02800
O         -2.60800       -5.78400       -3.23800
C         -2.89600       -7.80300       -4.42800
O         -4.26700       -7.78400       -4.81800
C         -2.11300       -6.84200       -5.30800
C         -2.33000       -5.51200       -4.59800
N         -1.15100       -4.60600       -4.64800
C         -1.39800       -3.25700       -4.79800
O         -2.52300       -2.79900       -4.88800
N         -0.27500       -2.45400       -4.83800
C          1.03400       -2.86700       -4.74800
O          1.96100       -2.05000       -4.79800
C          1.19500       -4.29300       -4.59800
C          2.60600       -4.78800       -4.48800
C          0.12300       -5.10800       -4.54800
H         -1.63500       -8.64600       -1.80900
H         -1.17300       -6.93100       -1.53900
H         -3.55700       -7.48300       -2.40600
H         -3.18700       -5.00100       -5.06100
H         -1.04600       -7.10800       -5.34000
H         -2.51600       -6.81900       -6.33200
H         -2.50300       -8.82800       -4.49800
H          0.26900       -6.18000       -4.42700
H          2.92700       -5.20000       -5.45700
H          2.66100       -5.57300       -3.72000
H          3.26700       -3.95400       -4.20800
H         -0.42900       -1.47200       -4.94400
P         -4.64000       -7.75500       -6.36800
O         -5.91400       -8.46800       -6.58800
O         -3.48200       -8.23900       -7.15800
O         -4.83700       -6.19300       -6.61800
C         -5.63600       -5.43200       -5.67800
C         -6.37800       -4.33500       -6.40800
O         -5.46500       -3.21200       -6.61800
C         -6.88400       -4.67600       -7.80800
O         -7.98200       -3.85500       -8.19800
C         -5.68600       -4.35800       -8.68800
C         -5.08000       -3.15500       -7.97800
N         -3.59300       -3.11500       -8.02800
C         -3.00000       -1.87900       -8.17800
O         -3.64100       -0.84600       -8.26800
N         -1.62000       -1.88900       -8.21800
C         -0.80400       -2.99200       -8.12800
O          0.42600       -2.87700       -8.17800
C         -1.51100       -4.24100       -7.97800
C         -0.66100       -5.47000       -7.86800
C         -2.85800       -4.27000       -7.92800
H         -6.36000       -6.10000       -5.19000
H         -4.97800       -4.98500       -4.91800
H         -7.23100       -4.02700       -5.78600
H         -5.47300       -2.23800       -8.44100
H         -4.97900       -5.20000       -8.72100
H         -5.99800       -4.10200       -9.71200
H         -7.16800       -5.73600       -7.87800
H         -3.37000       -5.22300       -7.80700
H         -0.64400       -5.99200       -8.83700
H         -1.07800       -6.13700       -7.10000
H          0.36400       -5.18400       -7.58800
H         -1.16700       -1.00300       -8.32400
P         -8.26700       -3.61200       -9.74800
O         -9.71600       -3.44000       -9.96800
O         -7.61400       -4.68400      -10.53800
O         -7.50900       -2.23300       -9.99800
C         -7.70700       -1.14700       -9.05800
C         -7.66300        0.17600       -9.78800
O         -6.26400        0.54800       -9.99800
C         -8.27200        0.19800      -11.18800
O         -8.67900        1.50800      -11.57800
C         -7.11600       -0.24900      -12.06800
C         -5.91900        0.36800      -11.35800
N         -4.69300       -0.47300      -11.40800
C         -4.57200       -1.84500      -11.32800
N         -3.33900       -2.27700      -11.40800
C         -2.58100       -1.11300      -11.54800
C         -1.18400       -0.94400      -11.67800
O         -0.29800       -1.79800      -11.69800
N         -0.84000        0.41400      -11.79800
C         -1.73700        1.46200      -11.79800
N         -1.21500        2.68500      -11.92800
N         -3.05200        1.30400      -11.66800
C         -3.40700       -0.00300      -11.54800
H         -8.68500       -1.26200       -8.56900
H         -6.91200       -1.17200       -8.29900
H         -8.17200        0.92700       -9.16600
H         -5.69800        1.34100      -11.82100
H         -7.03900       -1.34600      -12.10100
H         -7.21800        0.14200      -13.09200
H         -9.12500       -0.49300      -11.25800
H         -5.42600       -2.51000      -11.20900
H          0.13000        0.63700      -11.89100
H         -1.83100        3.51100      -11.92800
H         -0.19600        2.80200      -12.02900
P         -8.76700        1.87200      -13.12800
O         -9.83700        2.86300      -13.34800
O         -8.86800        0.62100      -13.91800
O         -7.34200        2.54200      -13.37800
C         -6.86400        3.53700      -12.43800
C         -6.05100        4.58100      -13.16800
O         -4.70000        4.06000      -13.37800
C         -6.53100        4.95800      -14.56800
O         -6.09000        6.25600      -14.95800
C         -5.85900        3.91600      -15.44800
C         -4.52700        3.71200      -14.73800
N         -4.03000        2.31000      -14.78800
C         -2.66000        2.11100      -14.93800
O         -1.91700        3.09700      -15.02800
N         -2.26100        0.65400      -14.98800
C         -3.01600       -0.20500      -14.88800
N         -2.50100       -1.42300      -14.93800
C         -4.42700       -0.02600      -14.73800
C         -4.87900        1.25700      -14.68800
H         -7.72300        4.01900      -11.94900
H         -6.23500        3.05000      -11.67900
H         -6.02200        5.48700      -12.54600
H         -3.77600        4.37000      -15.20100
H         -6.44200        2.98400      -15.48000
H         -5.71300        4.29200      -16.47200
H         -7.62700        4.90100      -14.63800
H         -5.94500        1.44200      -14.56600
H         -5.10600       -0.87400      -14.66800
H         -1.48500       -1.54800      -15.05600
H         -3.11600       -2.24600      -14.85900
O          7.35300       -2.23300      -17.03800
C          7.55100       -1.14700      -17.97800
C          7.50700        0.17600      -17.24800
O          6.10800        0.54800      -17.03800
C          8.11600        0.19800      -15.84800
O          8.52300        1.50800      -15.45800
C          6.96000       -0.24900      -14.96800
C          5.76300        0.36800      -15.67800
N          4.53700       -0.47300      -15.62800
C          4.41600       -1.84500      -15.70800
N          3.18300       -2.27700      -15.62800
C          2.42500       -1.11300      -15.48800
C          1.02800       -0.94400      -15.35800
O          0.14200       -1.79800      -15.33800
N          0.68400        0.41400      -15.23800
C          1.58100        1.46200      -15.23800
N          1.05900        2.68500      -15.10800
N          2.89600        1.30400      -15.36800
C          3.25100       -0.00300      -15.48800
H          8.52900       -1.26200      -18.46800
H          6.75600       -1.17200      -18.73800
H          8.01700        0.92700      -17.87100
H          5.54300        1.34100      -15.21600
H          6.88400       -1.34600      -14.93600
H          7.06300        0.14200      -13.94500
H          8.96900       -0.49300      -15.77900
H          5.27100       -2.51000      -15.82800
H         -0.28600        0.63700      -15.14600
H          1.67500        3.51100      -15.10900
H          0.04100        2.80200      -15.00800
P          8.61100        1.87200      -13.90800
O          9.68100        2.86300      -13.68800
O          8.71200        0.62100      -13.11800
O          7.18600        2.54200      -13.65800
C          6.70800        3.53700      -14.59800
C          5.89500        4.58100      -13.86800
O          4.54400        4.06000      -13.65800
C          6.37500        4.95800      -12.46800
O          5.93400        6.25600      -12.07800
C          5.70300        3.91600      -11.58800
C          4.37100        3.71200      -12.29800
N          3.87400        2.31000      -12.24800
C          2.50400        2.11100      -12.09800
O          1.76100        3.09700      -12.00800
N          2.10500        0.65400      -12.04800
C          2.86000       -0.20500      -12.14800
N          2.34500       -1.42300      -12.09800
C          4.27100       -0.02600      -12.29800
C          4.72300        1.25700      -12.34800
H          7.56700        4.01900      -15.08800
H          6.07900        3.05000      -15.35800
H          5.86600        5.48700      -14.49100
H          3.62100        4.37000      -11.83600
H          6.28600        2.98400      -11.55700
H          5.55700        4.29200      -10.56500
H          7.47200        4.90100      -12.39900
H          5.78900        1.44200      -12.47100
H          4.95000       -0.87400      -12.36900
H          1.33000       -1.54800      -11.98100
H          2.96000       -2.24600      -12.17800
P          5.79100        6.60200      -10.52800
O          6.07500        8.03300      -10.30800
O          6.60900        5.65000       -9.73800
O          4.24500        6.30600      -10.27800
C          3.27300        6.83000      -11.21800
C          2.00100        7.19800      -10.48800
O          1.21500        5.98200      -10.27800
C          2.16800        7.78400       -9.08800
O          1.04900        8.57500       -8.69800
C          2.23700        6.54600       -8.20800
C          1.28000        5.59800       -8.91800
N          1.70100        4.17200       -8.86800
C          2.96800        3.65900       -8.94800
N          3.00900        2.36200       -8.87800
C          1.68300        1.99700       -8.72800
C          1.05100        0.74300       -8.59800
N          1.70500       -0.41600       -8.58800
N         -0.28500        0.73300       -8.47800
C         -0.94000        1.89000       -8.48800
N         -0.47300        3.11400       -8.60800
C          0.86800        3.09100       -8.72800
H          3.68500        7.72500      -11.70900
H          3.05000        6.06600      -11.97800
H          1.44500        7.91400      -11.11100
H          0.28600        5.68900       -8.45600
H          3.25700        6.13500       -8.17700
H          1.89800        6.76400       -7.18500
H          3.08900        8.38200       -9.01900
H          3.85700        4.27900       -9.06000
H          2.73100       -0.42900       -8.67900
H          1.18500       -1.30000       -8.49000
H         -2.01600        1.81400       -8.38200
P          0.73000        8.77100       -7.14800
O          0.11800       10.09600       -6.92800
O          1.95100        8.48100       -6.35800
O         -0.34800        7.62300       -6.89800
C         -1.44200        7.47600       -7.83800
C         -2.68600        7.02600       -7.10800
O         -2.60800        5.58000       -6.89800
C         -2.89600        7.59900       -5.70800
O         -4.26700        7.58000       -5.31800
C         -2.11300        6.63800       -4.82800
C         -2.33000        5.30800       -5.53800
N         -1.15100        4.40200       -5.48800
C          0.17500        4.73100       -5.56800
N          0.97100        3.70600       -5.49800
C          0.11300        2.63100       -5.34800
C          0.33900        1.24500       -5.21800
N          1.54900        0.69100       -5.20800
N         -0.73600        0.45200       -5.09800
C         -1.94600        1.00300       -5.10800
N         -2.28800        2.26800       -5.22800
C         -1.19000        3.03700       -5.34800
H         -1.63500        8.44200       -8.32800
H         -1.17300        6.72700       -8.59800
H         -3.55700        7.27800       -7.73100
H         -3.18700        4.79700       -5.07600
H         -1.04600        6.90400       -4.79700
H         -2.51600        6.61500       -3.80500
H         -2.50300        8.62400       -5.63900
H          0.53000        5.75500       -5.68000
H          2.38700        1.28300       -5.29900
H          1.64800       -0.33000       -5.11000
H         -2.77100        0.30900       -5.00200
P         -4.64000        7.55100       -3.76800
O         -5.91400        8.26400       -3.54800
O         -3.48200        8.03500       -2.97800
O         -4.83700        5.98900       -3.51800
C         -5.63600        5.22800       -4.45800
C         -6.37800        4.13100       -3.72800
O         -5.46500        3.00800       -3.51800
C         -6.88400        4.47200       -2.32800
O         -7.98200        3.65100       -1.93800
C         -5.68600        4.15400       -1.44800
C         -5.08000        2.95100       -2.15800
N         -3.59300        2.91100       -2.10800
C         -2.71400        3.95700       -2.18800
N         -1.46800        3.59500       -2.11800
C         -1.53000        2.22200       -1.96800
C         -0.53200        1.23300       -1.83800
N          0.77200        1.49600       -1.82800
N         -0.93600       -0.04100       -1.71800
C         -2.23800       -0.30600       -1.72800
N         -3.25800        0.51600       -1.84800
C         -2.82200        1.78400       -1.96800
H         -6.36000        5.89600       -4.94700
H         -4.97800        4.78100       -5.21900
H         -7.23100        3.82300       -4.35100
H         -5.47300        2.03400       -1.69600
H         -4.97900        4.99600       -1.41600
H         -5.99800        3.89800       -0.42500
H         -7.16800        5.53200       -2.25900
H         -3.02900        4.99400       -2.30000
H          1.10200        2.46700       -1.91900
H          1.45200        0.72800       -1.73000
H         -2.49800       -1.35300       -1.62200
P         -8.26700        3.40800       -0.38800
O         -9.71600        3.23600       -0.16800
O         -7.61400        4.48000        0.40200
O         -7.50900        2.02900       -0.13800
C         -7.70700        0.94300       -1.07800
C         -7.66300       -0.38000       -0.34800
O         -6.26400       -0.75200       -0.13800
C         -8.27200       -0.40200        1.05200
O         -8.67900       -1.71200        1.44200
C         -7.11600        0.04500        1.93200
C         -5.91900       -0.57200        1.22200
N         -4.69300        0.26900        1.27200
C         -3.48600       -0.38200        1.42200
O         -3.39800       -1.59400        1.51200
N         -2.37600        0.43700        1.46200
C         -2.36400        1.81000        1.37200
O         -1.30100        2.43900        1.42200
C         -3.67000        2.40400        1.22200
C         -3.70500        3.89800        1.11200
C         -4.77700        1.63600        1.17200
H         -8.68500        1.05800       -1.56800
H         -6.91200        0.96800       -1.83800
H         -8.17200       -1.13100       -0.97100
H         -5.69800       -1.54500        1.68400
H         -7.03900        1.14200        1.96400
H         -7.21800       -0.34600        2.95500
H         -9.12500        0.28900        1.12100
H         -5.75100        2.10600        1.05000
H         -3.99800        4.33000        2.08000
H         -4.43500        4.19200        0.34300
H         -2.70800        4.26900        0.83100
H         -1.48900       -0.01400        1.56700
P         -8.76700       -2.07600        2.99200
O         -9.83700       -3.06700        3.21200
O         -8.86800       -0.82500        3.78200
O         -7.34200       -2.74600        3.24200
C         -6.86400       -3.74100        2.30200
C         -6.05100       -4.78500        3.03200
O         -4.70000       -4.26400        3.24200
C         -6.53100       -5.16200        4.43200
O         -6.09000       -6.46000        4.82200
C         -5.85900       -4.12000        5.31200
C         -4.52700       -3.91600        4.60200
N         -4.03000       -2.51400        4.65200
C         -2.67100       -2.33200        4.80200
O         -1.88700       -3.26100        4.89200
N         -2.25400       -1.01700        4.84200
C         -3.05100        0.10100        4.75200
O         -2.56100        1.23500        4.80200
C         -4.45700       -0.18600        4.60200
C         -5.36400        1.00200        4.49200
C         -4.90100       -1.45800        4.55200
H         -7.72300       -4.22300        1.81200
H         -6.23500       -3.25400        1.54200
H         -6.02200       -5.69100        2.40900
H         -3.77600       -4.57400        5.06400
H         -6.44200       -3.18800        5.34300
H         -5.71300       -4.49600        6.33500
H         -7.62700       -5.10500        4.50100
H         -5.96600       -1.65000        4.43000
H         -5.85500        1.17900        5.46000
H         -6.12700        0.81100        3.72300
H         -4.77500        1.88800        4.21100
H         -1.27200       -0.86100        4.94700
P         -5.94700       -6.80600        6.37200
O         -6.23100       -8.23700        6.59200
O         -6.76500       -5.85400        7.16200
O         -4.40100       -6.51000        6.62200
C         -3.42900       -7.03400        5.68200
C         -2.15700       -7.40200        6.41200
O         -1.37100       -6.18600        6.62200
C         -2.32400       -7.98800        7.81200
O         -1.20500       -8.77900        8.20200
C         -2.39300       -6.75000        8.69200
C         -1.43600       -5.80200        7.98200
N         -1.85700       -4.37600        8.03200
C         -0.86500       -3.43000        8.18200
O          0.31500       -3.72100        8.27200
N         -1.30100       -2.12100        8.22200
C         -2.60200       -1.68600        8.13200
O         -2.87300       -0.48000        8.18200
C         -3.57100       -2.74400        7.98200
C         -5.00300       -2.31600        7.87200
C         -3.18300       -4.03400        7.93200
H         -3.84000       -7.92900        5.19100
H         -3.20600       -6.27000        4.92200
H         -1.60100       -8.11800        5.78900
H         -0.44200       -5.89300        8.44400
H         -3.41300       -6.33900        8.72300
H         -2.05400       -6.96800        9.71500
H         -3.24400       -8.58600        7.88100
H         -3.93100       -4.81600        7.81000
H         -5.50400       -2.46100        8.84000
H         -5.50800       -2.91900        7.10300
H         -5.04700       -1.25300        7.59100
H         -0.59800       -1.41700        8.32700
P         -0.88600       -8.97500        9.75200
O         -0.27400      -10.30000        9.97200
O         -2.10700       -8.68500       10.54200
O          0.19200       -7.82700       10.00200
C          1.28600       -7.68000        9.06200
C          2.53000       -7.23000        9.79200
O          2.45200       -5.78400       10.00200
C          2.74000       -7.80300       11.19200
O          4.11100       -7.78400       11.58200
C          1.95700       -6.84200       12.07200
C          2.17400       -5.51200       11.36200
N          0.99500       -4.60600       11.41200
C          1.22900       -3.24100       11.56200
O          2.39600       -2.84000       11.65200
N         -0.03400       -2.41200       11.61200
C         -1.08400       -2.86500       11.51200
N         -2.08300       -1.99800       11.56200
C         -1.35000       -4.26200       11.36200
C         -0.27000       -5.08800       11.31200
H          1.47900       -8.64600        8.57200
H          1.01700       -6.93100        8.30200
H          3.40100       -7.48200        9.16900
H          3.03200       -5.00100       11.82400
H          0.89000       -7.10800       12.10300
H          2.36000       -6.81900       13.09500
H          2.34800       -8.82800       11.26100
H         -0.42400       -6.15900       11.18900
H         -2.36700       -4.64600       11.29100
H         -1.88800       -0.99400       11.67900
H         -3.05500       -2.32800       11.48300
P          4.48400       -7.75500       13.13200
O          5.75800       -8.46800       13.35200
O          3.32600       -8.23900       13.92200
O          4.68100       -6.19300       13.38200
C          5.48000       -5.43200       12.44200
C          6.22200       -4.33500       13.17200
O          5.30900       -3.21200       13.38200
C          6.72800       -4.67600       14.57200
O          7.82600       -3.85500       14.96200
C          5.53000       -4.35800       15.45200
C          4.92400       -3.15500       14.74200
N          3.43700       -3.11500       14.79200
C          2.53300       -4.15400       14.71200
N          1.28200       -3.77900       14.79200
C          1.35300       -2.39200       14.93200
C          0.32100       -1.43300       15.06200
O         -0.89700       -1.60300       15.08200
N          0.84100       -0.13300       15.18200
C          2.18400        0.18800       15.18200
N          2.48000        1.48400       15.31200
N          3.15500       -0.71300       15.05200
C          2.67300       -1.97900       14.93200
H          6.20400       -6.10000       11.95300
H          4.82300       -4.98500       11.68100
H          7.07500       -4.02700       12.54900
H          5.31800       -2.23800       15.20400
H          4.82400       -5.20000       15.48400
H          5.84300       -4.10200       16.47500
H          7.01300       -5.73600       14.64100
H          2.83400       -5.19400       14.59200
H          0.18800        0.61800       15.27400
H          3.46400        1.79000       15.31100
H          1.72500        2.17700       15.41200
H         -0.08179       10.21069       12.74818
H          5.98097        8.24390        9.36819
H          9.72848        3.08853        5.98820
H          9.73061       -3.28512        2.60814
H          5.98684       -8.44276       -0.77182
H         -0.07421      -10.41469       -4.15182
H         -6.13697       -8.44790       -7.53181
H         -9.88448       -3.29253      -10.91180
H         -9.88661        3.08112      -14.29186
H          9.57858        0.21223      -13.26914
H          7.55017        5.82931       -9.88946
H          2.60743        9.17890       -6.50945
H         -3.36166        8.98547       -3.12975
H         -8.07494        5.31990        0.25031
H         -9.73458       -0.41623        3.63086
H         -7.70617       -6.03331        7.01054
H         -2.76343       -9.38290       10.39055
H          3.20566       -9.18947       13.77025
H         -4.59840        6.97915       16.37207
H         -6.41614        6.45388      -15.84984
H          7.38206       -3.07937      -17.51099
H          8.59330       -4.05432       14.40306
