122

H         19.42821       19.22088       10.06841
H         20.06554       21.13519        8.61996
C         18.67300       19.93900        9.75800
H         17.07558       18.93035       10.80599
H         17.81213       16.84079        5.55510
H         19.28257       17.53811        4.83720
H         18.18880       16.56494        2.23981
H         18.13470       18.66974        6.99296
C         17.34700       19.77300       10.17600
O         19.06100       19.93800        5.72900
H         15.34517       20.53431       10.09035
C         16.37400       20.68700        9.77200
C         19.03700       21.01600        8.94700
H         19.32088       29.95432        7.18965
H         19.15124       31.08293        6.02958
N         18.62600       30.44400        6.62700
H         18.51108       28.89027        5.22329
C         17.85300       29.51600        5.83700
H         17.37331       30.54167        3.90112
O         15.84300       30.67800        5.23700
C         16.94500       30.29200        4.88600
H         17.73236       28.19055        7.54076
H         16.30917       29.24211        7.35824
C         17.04700       28.64200        6.81100
C         18.06700       18.94500        5.93600
H         15.93449       18.94158        6.17061
C         16.50400       19.06100        4.12800
H         19.07971       20.11816        4.76944
C         17.47600       17.90400        3.76000
C         18.22600       17.72600        5.05700
C         17.50000       17.36300        2.49600
C         15.72200       18.90600        1.86500
C         16.61300       17.87200        1.54100
H         15.04297       19.27506        1.09786
H         16.61090       17.45927        0.53483
H         19.12056       27.31571        1.02587
O         19.00300       25.30900        0.69200
C         18.55500       26.44600        0.65300
H         17.81881       26.24303       -1.90532
H         16.50431       27.20494       -1.88706
N         17.40700       27.05400       -1.43700
H         15.36766       25.77249       -0.52671
H         16.71323       24.63919       -0.26947
H         16.80493       27.62664        0.48083
C         17.22700       26.75100       -0.02600
C         18.05800       21.91600        8.55300
H         18.34888       22.75810        7.93048
C         16.73300       21.75000        8.96100
H         15.81158       23.64539        8.99650
H         14.66869       22.31913        8.90269
N         16.58300       20.91300        5.92400
H         17.46249       21.40133        6.02913
C         16.69200       19.50000        5.60400
C         15.64400       22.66400        8.53400
O         14.36700       20.83100        6.39700
C         15.68300       19.47900        3.12900
H         15.82618       26.87366        7.84316
C         16.25800       25.57200        0.08400
C         15.44700       21.44000        6.37300
C         15.57300       22.82100        7.00500
H         16.50314       23.27939        6.64357
C         16.31600       27.51300        6.14600
O         15.76200       26.69600        6.88200
O         16.23600       27.45800        4.90500
O         16.39900       25.78000        2.45300
H          9.22563       25.57961       10.31650
H         11.37753       26.64444       10.13154
H          8.37113       27.51319        8.21133
H          9.27544       27.87964        9.69038
H         15.28960       25.65458        5.23852
H         14.97198       20.28110        3.32620
H          9.89534       28.39284        8.11893
H         15.94717       25.44373        3.27327
C         15.75900       25.33600        1.49300
O         15.24200       24.88400        4.63400
O         14.73100       24.67500        1.64500
C         14.44000       23.76100        6.56900
H         14.54027       24.69906        7.12060
H         13.50345       23.32045        6.93515
H         11.97420       25.41209        9.03899
H         12.03713       27.08880        8.57454
C         11.39800       26.34700        9.07400
H          9.82118       24.28572        9.29331
C          9.37900       27.57700        8.64100
C         14.20300       24.06400        5.07800
H         14.24270       23.13562        4.49929
H         12.94754       25.75581        5.30319
H         13.35900       25.53108        3.65251
C         13.08300       24.96300        4.55200
C         10.59100       24.86400        6.46600
N         10.19300       25.95300        7.09400
H         10.02068       26.74642        6.48832
O         10.93700       23.84900        7.05700
C         10.14500       26.25000        8.49000
H          8.35939       25.13583        8.84908
C          9.36400       25.28300        9.26800
N         11.81900       24.28200        4.35500
H         12.55290       23.04391        2.79625
H         10.46070       25.92005        4.57104
C         11.75300       23.77600        2.96100
H         11.95255       24.62268        2.28897
C         10.59100       24.90500        4.96200
H         10.46647       22.11458        2.75898
H         10.43392       23.20589        1.39519
H          9.57125       22.99634        4.94483
C          9.49800       23.98300        4.45900
C         10.44000       23.18200        2.49300
N          9.28000       23.76300        3.00400
H          8.02623       22.08035        3.01563
H          8.56059       24.40329        4.85025
C          8.03300       23.10000        2.60400
H          8.05990       22.95474        1.51404
H          6.74594       25.24131        1.31654
C          6.66600       23.73900        2.87600
C          5.90500       23.21100        3.89700
H          6.25510       22.38554        4.50938
C          6.15800       24.80800        2.12400
C          4.65400       23.77400        4.13600
C          4.20700       24.83900        3.34800
N          4.91100       25.43000        2.30000
H          3.23099       25.28558        3.52497
H          4.02191       23.39047        4.93094
