128

 H	    2.587   9.038  -2.237
 O	    1.744   8.542  -2.029
 C	    0.760   8.854  -3.025
 H	    1.070   8.505  -3.909
 H	    0.527   9.824  -2.960
 C	   -0.525   8.120  -2.739
 H	   -1.214   8.455  -3.381
 O	   -0.367   6.689  -2.920
 C	   -0.825   5.978  -1.781
 H	   -1.771   5.705  -1.957
 N	    0.039   4.800  -1.630
 C	    0.793   2.733  -1.514
 N	    1.897   3.560  -1.352
 C	    1.399   4.768  -1.430
 H	    2.139   5.433  -1.324
 N	   -0.587   0.825  -1.713
 C	   -1.610   1.678  -1.860
 H	   -2.547   1.354  -1.993
 N	   -1.607   3.014  -1.861
 C	   -0.359   3.484  -1.680
 C	    0.656   1.328  -1.536
 N	    1.676   0.476  -1.394
 H	    1.492  -0.517  -1.423
 H	    2.607   0.844  -1.261
 C	   -0.805   7.000  -0.635
 H	    0.120   7.027  -0.255
 O	   -1.861   6.660   0.253
 H	   -2.012   5.718   0.361
 C	   -1.092   8.323  -1.336
 H	   -0.569   9.039  -0.874
 O	   -2.491   8.607  -1.475
 C	   -5.773   5.682   1.442
 H	   -5.753   6.648   1.698
 O	   -7.075   5.103   1.464
 H	   -7.325   4.699   2.298
 P	   -3.372   8.931  -0.181
 O	   -4.533   9.739  -0.645
 O	   -2.495   9.435   0.887
 O	   -3.894   7.495   0.236
 C	   -4.753   6.789  -0.642
 H	   -4.225   6.473  -1.430
 H	   -5.568   7.342  -0.815
 C	   -5.263   5.537   0.015
 H	   -6.039   5.227  -0.535
 O	   -4.256   4.510   0.025
 C	   -4.157   3.914   1.306
 H	   -4.748   3.107   1.306
 N	   -2.748   3.539   1.495
 C	   -0.853   2.423   1.681
 N	   -0.534   3.771   1.777
 C	   -1.682   4.386   1.664
 H	   -1.530   5.372   1.727
 N	   -0.687   0.055   1.594
 C	   -2.018   0.048   1.439
 H	   -2.535  -0.803   1.346
 N	   -2.871   1.087   1.380
 C	   -2.216   2.259   1.510
 C	   -0.059   1.247   1.718
 N	    1.272   1.255   1.858
 H	    1.769   0.376   1.867
 H	    1.749   2.140   1.951
 C	   -4.725   4.947   2.281
 H	   -3.995   5.586   2.523
 O	   -5.340   4.233   3.345
 H	   -4.890   3.426   3.605
 C	   -0.851  -7.964   3.334
 H	   -1.647  -8.064   3.931
 O	   -0.449  -6.573   3.314
 C	   -0.859  -5.964   2.095
 H	   -1.794  -5.632   2.221
 C	   -0.868  -7.093   1.082
 H	   -1.567  -6.896   0.395
 H	    0.069  -7.243   0.767
 H	    2.055  -9.476   3.322
 O	    1.335  -8.891   2.949
 C	    0.248  -8.841   3.877
 H	    0.556  -8.391   4.715
 H	   -0.155  -9.753   3.955
 N	    0.044  -4.821   1.854
 C	    1.398  -5.024   1.676
 H	    1.877  -5.901   1.639
 C	   -0.496  -3.549   1.852
 O	   -1.691  -3.316   2.003
 N	    0.413  -2.547   1.682
 H	    0.005  -1.536   1.669
 C	    1.785  -2.669   1.525
 O	    2.467  -1.667   1.405
 C	    2.289  -4.033   1.522
 C	    3.759  -4.272   1.349
 H	    3.933  -5.256   1.370
 H	    4.199  -3.847   2.140
 H	    4.196  -3.936   0.514
 C	   -1.312  -8.295   1.913
 H	   -0.810  -9.096   1.586
 O	   -2.722  -8.447   1.934
 C	   -5.240  -5.494   0.428
 H	   -5.925  -5.086   1.031
 O	   -4.133  -4.584   0.292
 C	   -4.131  -4.018  -1.012
 H	   -4.707  -3.201  -0.988
 C	   -4.794  -5.066  -1.894
 H	   -5.234  -4.612  -2.669
 H	   -4.138  -5.795  -2.088
 C	   -5.873  -5.605  -0.956
 H	   -6.018  -6.571  -1.171
 O	   -6.996  -4.730  -0.925
 H	   -7.215  -4.321  -1.766
 P	   -3.497  -8.969   0.627
 O	   -4.533  -9.905   1.109
 O	   -2.530  -9.426  -0.389
 O	   -4.190  -7.633   0.137
 C	   -4.834  -6.787   1.083
 H	   -4.176  -6.529   1.790
 H	   -5.690  -7.215   1.373
 N	   -2.746  -3.610  -1.296
 C	   -1.751  -4.558  -1.461
 H	   -1.859  -5.552  -1.470
 C	   -2.467  -2.248  -1.350
 O	   -3.324  -1.378  -1.244
 N	   -1.126  -1.951  -1.528
 H	   -0.867  -0.893  -1.571
 C	   -0.078  -2.859  -1.657
 O	    1.074  -2.452  -1.766
 C	   -0.455  -4.257  -1.638
 C	    0.607  -5.295  -1.820
 H	    0.186  -6.201  -1.786
 H	    1.224  -5.193  -1.039
 H	    1.144  -5.277  -2.663
