32

C       0.6287023673143490       0.0000000000000000       0.4445597072760119
C      -0.6287023673143490       0.0000000000000000      -0.4445597072760119
H       0.6287023673143490       0.8981462390204987       1.0796450033846003
H       0.6287023673143490      -0.8981462390204987       1.0796450033846003
H      -0.6287023673143490       0.8981462390204987      -1.0796450033846003
H      -0.6287023673143490      -0.8981462390204987      -1.0796450033846003
C       1.8861071019430471       0.0000000000000000      -0.4445597072760119
C      -1.8861071019430471       0.0000000000000000       0.4445597072760119
H       1.8861071019430471       0.8981462390204987      -1.0796450033846003
H       1.8861071019430471      -0.8981462390204987      -1.0796450033846003
H      -1.8861071019430471       0.8981462390204987       1.0796450033846003
H      -1.8861071019430471      -0.8981462390204987       1.0796450033846003
C       3.1435118365717454       0.0000000000000000       0.4445597072760119
C      -3.1435118365717454       0.0000000000000000      -0.4445597072760119
H       3.1435118365717454       0.8981462390204987       1.0796450033846003
H       3.1435118365717454      -0.8981462390204987       1.0796450033846003
H      -3.1435118365717454       0.8981462390204987      -1.0796450033846003
H      -3.1435118365717454      -0.8981462390204987      -1.0796450033846003
C       4.4009165712004439       0.0000000000000000      -0.4445597072760119
C      -4.4009165712004439       0.0000000000000000       0.4445597072760119
H       4.4009165712004439       0.8981462390204987      -1.0796450033846003
H       4.4009165712004439      -0.8981462390204987      -1.0796450033846003
H      -4.4009165712004439       0.8981462390204987       1.0796450033846003
H      -4.4009165712004439      -0.8981462390204987       1.0796450033846003
C       5.6583213058291424       0.0000000000000000       0.4445597072760119
C      -5.6583213058291424       0.0000000000000000      -0.4445597072760119
H       5.6583213058291424       0.8981462390204987       1.0796450033846003
H       5.6583213058291424      -0.8981462390204987       1.0796450033846003
H      -5.6583213058291424       0.8981462390204987      -1.0796450033846003
H      -5.6583213058291424      -0.8981462390204987      -1.0796450033846003
H       6.5564675448496414       0.0000000000000000      -0.1905255888325765
H      -6.5564675448496414       0.0000000000000000       0.1905255888325765