194

O          2.37400       -6.99900       16.48000
C          3.13300       -6.50100       15.36100
C          3.91600       -5.26900       15.77300
O          3.14800       -4.04300       15.60600
C          4.36900       -5.22500       17.23100
O          5.65400       -4.61900       17.29700
C          3.36200       -4.30400       17.92100
C          3.26100       -3.27900       16.79800
N          2.08900       -2.41500       16.89500
C          0.79700       -2.78400       17.18400
N         -0.04700       -1.78100       17.20200
C          0.74100       -0.67700       16.90400
C          0.44200        0.68900       16.77200
N         -0.78200        1.19900       16.92700
N          1.45800        1.52700       16.46900
C          2.68400        1.01500       16.31300
N          3.09100       -0.24800       16.41200
C          2.05900       -1.05300       16.71300
P          5.72000       -5.04200       18.74500
O          6.33800       -6.27500       18.20700
O          5.04200       -5.17300       20.05400
O          6.81700       -3.88100       18.82100
C          7.05800       -3.07100       17.65500
C          7.16600       -1.61100       18.05000
O          5.87200       -0.94300       18.06200
C          7.73500       -1.33900       19.44200
O          8.53700       -0.16600       19.39000
C          6.50900       -1.05100       20.31100
C          5.75200       -0.22300       19.27900
N          4.32100       -0.07000       19.58000
C          3.75800        1.17800       19.43700
O          4.39200        2.15500       19.07400
N          2.42000        1.23900       19.73600
C          1.60900        0.20200       20.15400
O          0.42100        0.40800       20.38600
C          2.26500       -1.08000       20.28200
C          1.46700       -2.26300       20.73000
C          3.57100       -1.15000       19.99300
P          9.37000       -0.12600       20.93200
O         10.51200       -0.80200       20.27500
O          9.01100       -0.62000       22.28000
O          9.64100        1.44900       20.99200
C          9.27700        2.26300       19.86000
C          8.59700        3.53300       20.33200
O          7.15800        3.36600       20.48500
C          9.05300        4.06700       21.68900
O          9.06100        5.48900       21.64400
C          7.96500        3.61800       22.66700
C          6.77900        3.89000       21.74900
N          5.54100        3.21800       22.16900
C          4.37000        3.94200       22.14400
O          4.31700        5.10800       21.79200
N          3.25900        3.24500       22.55000
C          3.20500        1.92900       22.96800
O          2.13100        1.43700       23.30400
C          4.47000        1.23000       22.96800
C          4.51000       -0.20000       23.40600
C          5.56000        1.90100       22.57400
O         -5.94700        9.81900       23.44100
C         -4.91900       10.36700       24.28800
C         -3.58500       10.34200       23.56700
O         -2.87100        9.08900       23.76600
C         -3.64700       10.49500       22.04800
O         -2.53100       11.26500       21.61600
C         -3.49100        9.07100       21.51000
C         -2.42400        8.62300       22.50100
N         -2.26800        7.17400       22.58100
C         -3.26100        6.22700       22.64400
N         -2.81300        4.99700       22.70900
C         -1.43200        5.14300       22.68600
C         -0.38300        4.21000       22.72700
N         -0.56600        2.89000       22.80300
N          0.88100        4.68600       22.68700
C          1.06400        6.00900       22.61100
N          0.16000        6.98600       22.56600
C         -1.08300        6.47900       22.60700
P         -3.18900       11.55600       20.27400
O         -3.75600       12.81800       20.79600
O         -3.98200       10.87100       19.22700
O         -1.70400       11.81300       19.73900
C         -0.60600       11.74500       20.66900
C          0.54800       10.97700       20.05400
O          0.45100        9.54400       20.29500
C          0.68700       11.08700       18.53600
O          2.07000       11.11500       18.20100
C          0.08300        9.79000       17.99700
C          0.66300        8.86800       19.06400
N          0.00000        7.57000       19.14100
C         -1.35000        7.31400       19.11700
N         -1.64700        6.04100       19.20300
C         -0.41000        5.41400       19.28900
C         -0.04100        4.06300       19.40300
N         -0.91700        3.05700       19.45000
N          1.27800        3.77800       19.46600
C          2.15400        4.78700       19.41800
N          1.93200        6.09500       19.31300
C          0.61300        6.34500       19.25200
P          1.98900       11.46600       16.74000
O          2.15400       12.86500       17.19500
O          1.05600       11.25600       15.61100
O          3.41900       10.84800       16.37800
C          4.20900       10.25500       17.42700
C          4.81200        8.94900       16.94700
O          3.92800        7.81400       17.17500
C          5.13300        8.87300       15.45500
O          6.33300        8.12900       15.28000
C          3.97500        8.07700       14.85100
C          3.85600        7.05700       15.97700
N          2.58100        6.32400       15.97700
C          2.61600        4.96200       16.17500
O          3.65200        4.34200       16.34800
N          1.38700        4.35100       16.16100
C          0.15700        4.95200       15.97400
O         -0.86600        4.27200       15.98800
C          0.19500        6.38300       15.77300
C         -1.08900        7.12100       15.56100
C          1.38900        6.98800       15.78400
H          1.87650       -7.78622       16.20856
H          2.46503       -6.24655       14.56478
H          3.81509       -7.25790       15.03427
H          4.76595       -5.33548       15.12642
H          4.41920       -6.19707       17.67538
H          3.74422       -3.88350       18.82764
H          2.44686       -4.75062       18.24955
H          4.11337       -2.63327       16.83537
H          0.51727       -3.75988       17.36958
H         -1.53738        0.60752       17.14791
H         -0.92925        2.16657       16.82039
H          3.42144        1.69909       16.08231
H          4.37736       -5.87779       20.00478
H          6.24856       -3.19253       16.96585
H          7.97454       -3.37929       17.19694
H          7.83407       -1.24008       17.30100
H          8.32718       -2.15036       19.81068
H          6.75090       -0.49069       21.18988
H          5.99759       -1.89763       20.71914
H          6.16142        0.76525       19.25378
H          1.99043        2.11985       19.64212
H          0.45339       -1.96563       20.90048
H          1.88228       -2.65069       21.63672
H          1.49444       -3.01901       19.97330
H          4.04196       -2.06368       20.08471
H          8.84711       -1.57527       22.24124
H          8.60717        1.71533       19.23049
H         10.16032        2.51979       19.31346
H          8.87071        4.21822       19.55711
H         10.02800        3.72065       21.96162
H          8.17941        5.80965       21.39725
H          7.94107        4.21281       23.55612
H          8.05124        2.62753       23.06252
H          6.56729        4.93884       21.75135
H          2.40644        3.73727       22.54250
H          3.52413       -0.51901       23.67281
H          5.15722       -0.29572       24.25267
H          4.87727       -0.80799       22.60577
H          6.46449        1.40409       22.57368
H         -6.79628        9.83864       23.90924
H         -4.84917        9.78439       25.18276
H         -5.16739       11.37871       24.53222
H         -3.09601       11.18865       24.00171
H         -4.54718       10.97057       21.71875
H         -3.14569        9.05012       20.49747
H         -4.37885        8.47625       21.45628
H         -1.47530        9.01015       22.19280
H         -4.26587        6.46204       22.64048
H         -1.47799        2.52042       22.83333
H          0.21102        2.28599       22.82873
H          2.04848        6.31729       22.58321
H         -4.88232       10.71585       19.55296
H         -0.92710       11.24816       21.56059
H         -0.28213       12.73756       20.90315
H          1.38566       11.43818       20.53415
H          0.21480       11.96258       18.14193
H          0.43239        9.55159       17.01415
H         -0.97902        9.76992       17.86809
H          1.68897        8.66850       18.83491
H         -2.06340        8.05557       19.03853
H         -1.88279        3.24279       19.40557
H         -0.59733        2.12921       19.52909
H          3.14713        4.51129       19.46995
H          0.18976       11.63169       15.83324
H          3.58609       10.06666       18.27636
H          4.99651       10.92739       17.69648
H          5.71532        8.91231       17.51934
H          5.25322        9.83840       15.00951
H          6.23118        7.25199       15.68174
H          4.23027        7.62701       13.91439
H          3.09080        8.62571       14.60198
H          4.62598        6.32220       15.86703
H          1.38126        3.37632       16.29959
H         -1.90635        6.43122       15.59320
H         -1.06859        7.60556       14.60723
H         -1.21038        7.85404       16.33095
H          1.41853        8.00945       15.63979
