128

 H	    1.711  10.161  -3.548
 O	    0.811   9.785  -3.327
 C	    0.932   8.379  -3.123
 H	    1.500   8.215  -2.317
 H	    1.203   7.947  -3.983
 C	   -0.406   7.765  -2.786
 H	   -1.079   8.048  -3.469
 O	   -0.296   6.331  -2.802
 C	   -0.714   5.773  -1.571
 H	   -1.671   5.502  -1.676
 N	    0.127   4.591  -1.344
 C	    1.448   4.725  -1.007
 H	    1.989   5.547  -0.830
 C	    2.229   3.653  -0.867
 H	    3.194   3.531  -0.635
 C	   -0.438   3.307  -1.522
 O	   -1.643   3.211  -1.798
 N	    0.341   2.227  -1.387
 C	    1.634   2.369  -1.076
 N	    2.371   1.264  -0.965
 H	    1.932   0.367  -1.118
 H	    3.352   1.320  -0.732
 C	   -0.628   6.906  -0.563
 H	    0.318   6.989  -0.250
 O	   -1.622   6.685   0.428
 H	   -1.753   5.766   0.673
 C	   -0.975   8.116  -1.416
 H	   -0.482   8.906  -1.051
 O	   -2.394   8.212  -1.546
 C	   -5.457   6.084   2.074
 H	   -5.528   7.081   2.052
 O	   -6.508   5.264   2.555
 H	   -6.492   5.097   3.500
 P	   -3.270   8.760  -0.325
 O	   -4.436   9.470  -0.877
 O	   -2.385   9.439   0.663
 O	   -3.796   7.444   0.357
 C	   -4.756   6.640  -0.295
 H	   -4.318   6.163  -1.057
 H	   -5.565   7.194  -0.492
 C	   -5.210   5.571   0.656
 H	   -6.062   5.151   0.343
 O	   -4.201   4.554   0.772
 C	   -3.836   4.399   2.126
 H	   -4.413   3.676   2.505
 N	   -2.459   3.943   2.145
 C	   -2.073   2.634   2.037
 N	   -2.937  -0.720   1.748
 H	   -2.556  -1.653   1.682
 H	   -3.944  -0.642   1.734
 N	   -2.905   1.573   1.929
 C	   -2.248   0.430   1.852
 N	   -0.872   0.334   1.875
 H	   -0.461  -0.608   1.806
 C	    0.003   1.423   1.985
 O	    1.218   1.236   2.002
 C	   -0.699   2.653   2.070
 N	   -0.229   3.955   2.193
 C	   -1.311   4.685   2.241
 H	   -1.051   5.646   2.340
 C	   -4.179   5.712   2.805
 H	   -3.474   6.389   2.593
 O	   -4.439   5.454   4.178
 H	   -3.865   4.801   4.584
 H	    3.413  -8.543   1.835
 O	    2.566  -8.018   1.752
 C	    1.539  -8.650   2.553
 H	    1.799  -8.596   3.517
 H	    1.338  -9.552   2.172
 C	    0.232  -7.891   2.461
 H	   -0.472  -8.430   2.924
 O	    0.330  -6.598   3.098
 C	   -0.513  -5.669   2.403
 H	   -1.205  -5.372   3.061
 N	    0.316  -4.529   1.999
 C	    1.656  -4.674   1.763
 H	    2.224  -5.497   1.765
 C	    2.422  -3.618   1.476
 H	    3.395  -3.504   1.276
 C	   -0.291  -3.287   1.896
 O	   -1.515  -3.210   2.062
 N	    0.465  -2.203   1.616
 C	    1.786  -2.345   1.426
 N	    2.500  -1.250   1.197
 H	    2.030  -0.357   1.174
 H	    3.497  -1.307   1.048
 C	   -1.196  -6.415   1.271
 H	   -1.189  -5.837   0.455
 O	   -2.462  -6.856   1.743
 H	   -2.913  -6.241   2.327
 C	   -0.268  -7.586   1.051
 H	    0.502  -7.280   0.492
 O	   -0.979  -8.691   0.523
 C	   -4.551  -6.311  -2.579
 H	   -3.654  -6.500  -2.979
 O	   -5.600  -6.974  -3.249
 H	   -5.985  -6.487  -3.982
 P	   -1.210  -8.804  -1.065
 O	   -1.690 -10.189  -1.339
 O	   -0.011  -8.302  -1.774
 O	   -2.395  -7.782  -1.385
 C	   -3.712  -7.939  -0.824
 H	   -3.637  -7.993   0.172
 H	   -4.182  -8.682  -1.300
 C	   -4.529  -6.700  -1.102
 H	   -5.478  -6.794  -0.801
 O	   -3.932  -5.574  -0.427
 C	   -3.998  -4.418  -1.268
 H	   -4.536  -3.737  -0.770
 N	   -2.632  -3.932  -1.456
 C	   -2.235  -2.619  -1.498
 N	   -3.031   0.773  -1.415
 H	   -2.629   1.699  -1.442
 H	   -4.037   0.721  -1.348
 N	   -3.046  -1.540  -1.415
 C	   -2.367  -0.405  -1.460
 N	   -0.998  -0.340  -1.564
 H	   -0.567   0.596  -1.576
 C	   -0.154  -1.443  -1.654
 O	    1.050  -1.286  -1.747
 C	   -0.866  -2.657  -1.618
 N	   -0.409  -3.963  -1.679
 C	   -1.490  -4.687  -1.586
 H	   -1.239  -5.654  -1.631
 C	   -4.748  -4.812  -2.539
 H	   -4.285  -4.402  -3.325
 O	   -6.119  -4.488  -2.352
 H	   -6.281  -3.676  -1.866
